
---------- Begin Simulation Statistics ----------
final_tick                               119056114000                       # Number of ticks from beginning of simulation (restored from checkpoints and never reset)
host_inst_rate                                 284074                       # Simulator instruction rate (inst/s)
host_mem_usage                                 682904                       # Number of bytes of host memory used
host_op_rate                                   310868                       # Simulator op (including micro ops) rate (op/s)
host_seconds                                   352.02                       # Real time elapsed on the host
host_tick_rate                              338207561                       # Simulator tick rate (ticks/s)
sim_freq                                 1000000000000                       # Frequency of simulated ticks
sim_insts                                   100000001                       # Number of instructions simulated
sim_ops                                     109431937                       # Number of ops (including micro ops) simulated
sim_seconds                                  0.119056                       # Number of seconds simulated
sim_ticks                                119056114000                       # Number of ticks simulated
system.cpu.branchPred.BTBCorrect                    0                       # Number of correct BTB predictions (this stat may not work properly.
system.cpu.branchPred.BTBHitPct             87.596980                       # BTB Hit Percentage
system.cpu.branchPred.BTBHits                 8748108                       # Number of BTB hits
system.cpu.branchPred.BTBLookups              9986769                       # Number of BTB lookups
system.cpu.branchPred.RASInCorrect                348                       # Number of incorrect RAS predictions.
system.cpu.branchPred.condIncorrect            155024                       # Number of conditional branches incorrect
system.cpu.branchPred.condPredicted          16528332                       # Number of conditional branches predicted
system.cpu.branchPred.indirectHits             300026                       # Number of indirect target hits.
system.cpu.branchPred.indirectLookups          540257                       # Number of indirect predictor lookups.
system.cpu.branchPred.indirectMisses           240231                       # Number of indirect misses.
system.cpu.branchPred.lookups                20635765                       # Number of BP lookups
system.cpu.branchPred.usedRAS                 1050693                       # Number of times the RAS was used to get a target.
system.cpu.branchPredindirectMispredicted         1210                       # Number of mispredicted indirect branches.
system.cpu.committedInsts                   100000001                       # Number of instructions committed
system.cpu.committedOps                     109431937                       # Number of ops (including micro ops) committed
system.cpu.cpi                               1.190561                       # CPI: cycles per instruction
system.cpu.discardedOps                        734030                       # Number of ops (including micro ops) which were discarded before commit
system.cpu.dtb.accesses                             0                       # DTB accesses
system.cpu.dtb.align_faults                         0                       # Number of TLB faults due to alignment restrictions
system.cpu.dtb.domain_faults                        0                       # Number of TLB faults due to domain restrictions
system.cpu.dtb.flush_entries                        0                       # Number of entries that have been flushed from TLB
system.cpu.dtb.flush_tlb                            0                       # Number of times complete TLB was flushed
system.cpu.dtb.flush_tlb_asid                       0                       # Number of times TLB was flushed by ASID
system.cpu.dtb.flush_tlb_mva                        0                       # Number of times TLB was flushed by MVA
system.cpu.dtb.flush_tlb_mva_asid                   0                       # Number of times TLB was flushed by MVA & ASID
system.cpu.dtb.hits                                 0                       # DTB hits
system.cpu.dtb.inst_accesses                        0                       # ITB inst accesses
system.cpu.dtb.inst_hits                            0                       # ITB inst hits
system.cpu.dtb.inst_misses                          0                       # ITB inst misses
system.cpu.dtb.misses                               0                       # DTB misses
system.cpu.dtb.perms_faults                         0                       # Number of TLB faults due to permissions restrictions
system.cpu.dtb.prefetch_faults                      0                       # Number of TLB faults due to prefetch
system.cpu.dtb.read_accesses                        0                       # DTB read accesses
system.cpu.dtb.read_hits                            0                       # DTB read hits
system.cpu.dtb.read_misses                          0                       # DTB read misses
system.cpu.dtb.stage2_mmu.stage2_tlb.accesses            0                       # DTB accesses
system.cpu.dtb.stage2_mmu.stage2_tlb.align_faults            0                       # Number of TLB faults due to alignment restrictions
system.cpu.dtb.stage2_mmu.stage2_tlb.domain_faults            0                       # Number of TLB faults due to domain restrictions
system.cpu.dtb.stage2_mmu.stage2_tlb.flush_entries            0                       # Number of entries that have been flushed from TLB
system.cpu.dtb.stage2_mmu.stage2_tlb.flush_tlb            0                       # Number of times complete TLB was flushed
system.cpu.dtb.stage2_mmu.stage2_tlb.flush_tlb_asid            0                       # Number of times TLB was flushed by ASID
system.cpu.dtb.stage2_mmu.stage2_tlb.flush_tlb_mva            0                       # Number of times TLB was flushed by MVA
system.cpu.dtb.stage2_mmu.stage2_tlb.flush_tlb_mva_asid            0                       # Number of times TLB was flushed by MVA & ASID
system.cpu.dtb.stage2_mmu.stage2_tlb.hits            0                       # DTB hits
system.cpu.dtb.stage2_mmu.stage2_tlb.inst_accesses            0                       # ITB inst accesses
system.cpu.dtb.stage2_mmu.stage2_tlb.inst_hits            0                       # ITB inst hits
system.cpu.dtb.stage2_mmu.stage2_tlb.inst_misses            0                       # ITB inst misses
system.cpu.dtb.stage2_mmu.stage2_tlb.misses            0                       # DTB misses
system.cpu.dtb.stage2_mmu.stage2_tlb.perms_faults            0                       # Number of TLB faults due to permissions restrictions
system.cpu.dtb.stage2_mmu.stage2_tlb.prefetch_faults            0                       # Number of TLB faults due to prefetch
system.cpu.dtb.stage2_mmu.stage2_tlb.read_accesses            0                       # DTB read accesses
system.cpu.dtb.stage2_mmu.stage2_tlb.read_hits            0                       # DTB read hits
system.cpu.dtb.stage2_mmu.stage2_tlb.read_misses            0                       # DTB read misses
system.cpu.dtb.stage2_mmu.stage2_tlb.walker.walkRequestOrigin_Requested::Data            0                       # Table walker requests started/completed, data/inst
system.cpu.dtb.stage2_mmu.stage2_tlb.walker.walkRequestOrigin_Requested::Inst            0                       # Table walker requests started/completed, data/inst
system.cpu.dtb.stage2_mmu.stage2_tlb.walker.walkRequestOrigin_Requested::total            0                       # Table walker requests started/completed, data/inst
system.cpu.dtb.stage2_mmu.stage2_tlb.walker.walkRequestOrigin_Completed::Data            0                       # Table walker requests started/completed, data/inst
system.cpu.dtb.stage2_mmu.stage2_tlb.walker.walkRequestOrigin_Completed::Inst            0                       # Table walker requests started/completed, data/inst
system.cpu.dtb.stage2_mmu.stage2_tlb.walker.walkRequestOrigin_Completed::total            0                       # Table walker requests started/completed, data/inst
system.cpu.dtb.stage2_mmu.stage2_tlb.walker.walkRequestOrigin::total            0                       # Table walker requests started/completed, data/inst
system.cpu.dtb.stage2_mmu.stage2_tlb.walker.walks            0                       # Table walker walks requested
system.cpu.dtb.stage2_mmu.stage2_tlb.write_accesses            0                       # DTB write accesses
system.cpu.dtb.stage2_mmu.stage2_tlb.write_hits            0                       # DTB write hits
system.cpu.dtb.stage2_mmu.stage2_tlb.write_misses            0                       # DTB write misses
system.cpu.dtb.walker.walkRequestOrigin_Requested::Data            0                       # Table walker requests started/completed, data/inst
system.cpu.dtb.walker.walkRequestOrigin_Requested::Inst            0                       # Table walker requests started/completed, data/inst
system.cpu.dtb.walker.walkRequestOrigin_Requested::total            0                       # Table walker requests started/completed, data/inst
system.cpu.dtb.walker.walkRequestOrigin_Completed::Data            0                       # Table walker requests started/completed, data/inst
system.cpu.dtb.walker.walkRequestOrigin_Completed::Inst            0                       # Table walker requests started/completed, data/inst
system.cpu.dtb.walker.walkRequestOrigin_Completed::total            0                       # Table walker requests started/completed, data/inst
system.cpu.dtb.walker.walkRequestOrigin::total            0                       # Table walker requests started/completed, data/inst
system.cpu.dtb.walker.walks                         0                       # Table walker walks requested
system.cpu.dtb.write_accesses                       0                       # DTB write accesses
system.cpu.dtb.write_hits                           0                       # DTB write hits
system.cpu.dtb.write_misses                         0                       # DTB write misses
system.cpu.fetch2.amo_instructions                  0                       # Number of memory atomic instructions successfully decoded
system.cpu.fetch2.fp_instructions                   0                       # Number of floating point instructions successfully decoded
system.cpu.fetch2.int_instructions           49968156                       # Number of integer instructions successfully decoded
system.cpu.fetch2.load_instructions          17199448                       # Number of memory load instructions successfully decoded
system.cpu.fetch2.store_instructions         10036375                       # Number of memory store instructions successfully decoded
system.cpu.fetch2.vec_instructions                  0                       # Number of SIMD instructions successfully decoded
system.cpu.idleCycles                         7223634                       # Total number of cycles that the object has spent stopped
system.cpu.ipc                               0.839940                       # IPC: instructions per cycle
system.cpu.itb.accesses                             0                       # DTB accesses
system.cpu.itb.align_faults                         0                       # Number of TLB faults due to alignment restrictions
system.cpu.itb.domain_faults                        0                       # Number of TLB faults due to domain restrictions
system.cpu.itb.flush_entries                        0                       # Number of entries that have been flushed from TLB
system.cpu.itb.flush_tlb                            0                       # Number of times complete TLB was flushed
system.cpu.itb.flush_tlb_asid                       0                       # Number of times TLB was flushed by ASID
system.cpu.itb.flush_tlb_mva                        0                       # Number of times TLB was flushed by MVA
system.cpu.itb.flush_tlb_mva_asid                   0                       # Number of times TLB was flushed by MVA & ASID
system.cpu.itb.hits                                 0                       # DTB hits
system.cpu.itb.inst_accesses                        0                       # ITB inst accesses
system.cpu.itb.inst_hits                            0                       # ITB inst hits
system.cpu.itb.inst_misses                          0                       # ITB inst misses
system.cpu.itb.misses                               0                       # DTB misses
system.cpu.itb.perms_faults                         0                       # Number of TLB faults due to permissions restrictions
system.cpu.itb.prefetch_faults                      0                       # Number of TLB faults due to prefetch
system.cpu.itb.read_accesses                        0                       # DTB read accesses
system.cpu.itb.read_hits                            0                       # DTB read hits
system.cpu.itb.read_misses                          0                       # DTB read misses
system.cpu.itb.stage2_mmu.stage2_tlb.accesses            0                       # DTB accesses
system.cpu.itb.stage2_mmu.stage2_tlb.align_faults            0                       # Number of TLB faults due to alignment restrictions
system.cpu.itb.stage2_mmu.stage2_tlb.domain_faults            0                       # Number of TLB faults due to domain restrictions
system.cpu.itb.stage2_mmu.stage2_tlb.flush_entries            0                       # Number of entries that have been flushed from TLB
system.cpu.itb.stage2_mmu.stage2_tlb.flush_tlb            0                       # Number of times complete TLB was flushed
system.cpu.itb.stage2_mmu.stage2_tlb.flush_tlb_asid            0                       # Number of times TLB was flushed by ASID
system.cpu.itb.stage2_mmu.stage2_tlb.flush_tlb_mva            0                       # Number of times TLB was flushed by MVA
system.cpu.itb.stage2_mmu.stage2_tlb.flush_tlb_mva_asid            0                       # Number of times TLB was flushed by MVA & ASID
system.cpu.itb.stage2_mmu.stage2_tlb.hits            0                       # DTB hits
system.cpu.itb.stage2_mmu.stage2_tlb.inst_accesses            0                       # ITB inst accesses
system.cpu.itb.stage2_mmu.stage2_tlb.inst_hits            0                       # ITB inst hits
system.cpu.itb.stage2_mmu.stage2_tlb.inst_misses            0                       # ITB inst misses
system.cpu.itb.stage2_mmu.stage2_tlb.misses            0                       # DTB misses
system.cpu.itb.stage2_mmu.stage2_tlb.perms_faults            0                       # Number of TLB faults due to permissions restrictions
system.cpu.itb.stage2_mmu.stage2_tlb.prefetch_faults            0                       # Number of TLB faults due to prefetch
system.cpu.itb.stage2_mmu.stage2_tlb.read_accesses            0                       # DTB read accesses
system.cpu.itb.stage2_mmu.stage2_tlb.read_hits            0                       # DTB read hits
system.cpu.itb.stage2_mmu.stage2_tlb.read_misses            0                       # DTB read misses
system.cpu.itb.stage2_mmu.stage2_tlb.walker.walkRequestOrigin_Requested::Data            0                       # Table walker requests started/completed, data/inst
system.cpu.itb.stage2_mmu.stage2_tlb.walker.walkRequestOrigin_Requested::Inst            0                       # Table walker requests started/completed, data/inst
system.cpu.itb.stage2_mmu.stage2_tlb.walker.walkRequestOrigin_Requested::total            0                       # Table walker requests started/completed, data/inst
system.cpu.itb.stage2_mmu.stage2_tlb.walker.walkRequestOrigin_Completed::Data            0                       # Table walker requests started/completed, data/inst
system.cpu.itb.stage2_mmu.stage2_tlb.walker.walkRequestOrigin_Completed::Inst            0                       # Table walker requests started/completed, data/inst
system.cpu.itb.stage2_mmu.stage2_tlb.walker.walkRequestOrigin_Completed::total            0                       # Table walker requests started/completed, data/inst
system.cpu.itb.stage2_mmu.stage2_tlb.walker.walkRequestOrigin::total            0                       # Table walker requests started/completed, data/inst
system.cpu.itb.stage2_mmu.stage2_tlb.walker.walks            0                       # Table walker walks requested
system.cpu.itb.stage2_mmu.stage2_tlb.write_accesses            0                       # DTB write accesses
system.cpu.itb.stage2_mmu.stage2_tlb.write_hits            0                       # DTB write hits
system.cpu.itb.stage2_mmu.stage2_tlb.write_misses            0                       # DTB write misses
system.cpu.itb.walker.walkRequestOrigin_Requested::Data            0                       # Table walker requests started/completed, data/inst
system.cpu.itb.walker.walkRequestOrigin_Requested::Inst            0                       # Table walker requests started/completed, data/inst
system.cpu.itb.walker.walkRequestOrigin_Requested::total            0                       # Table walker requests started/completed, data/inst
system.cpu.itb.walker.walkRequestOrigin_Completed::Data            0                       # Table walker requests started/completed, data/inst
system.cpu.itb.walker.walkRequestOrigin_Completed::Inst            0                       # Table walker requests started/completed, data/inst
system.cpu.itb.walker.walkRequestOrigin_Completed::total            0                       # Table walker requests started/completed, data/inst
system.cpu.itb.walker.walkRequestOrigin::total            0                       # Table walker requests started/completed, data/inst
system.cpu.itb.walker.walks                         0                       # Table walker walks requested
system.cpu.itb.write_accesses                       0                       # DTB write accesses
system.cpu.itb.write_hits                           0                       # DTB write hits
system.cpu.itb.write_misses                         0                       # DTB write misses
system.cpu.numCycles                        119056114                       # number of cpu cycles simulated
system.cpu.numFetchSuspends                         0                       # Number of times Execute suspended instruction fetching
system.cpu.numWorkItemsCompleted                    0                       # number of work items this cpu completed
system.cpu.numWorkItemsStarted                      0                       # number of work items this cpu started
system.cpu.op_class_0::No_OpClass                   0      0.00%      0.00% # Class of committed instruction
system.cpu.op_class_0::IntAlu                72955303     66.67%     66.67% # Class of committed instruction
system.cpu.op_class_0::IntMult                 568365      0.52%     67.19% # Class of committed instruction
system.cpu.op_class_0::IntDiv                       0      0.00%     67.19% # Class of committed instruction
system.cpu.op_class_0::FloatAdd                     0      0.00%     67.19% # Class of committed instruction
system.cpu.op_class_0::FloatCmp                     0      0.00%     67.19% # Class of committed instruction
system.cpu.op_class_0::FloatCvt                     0      0.00%     67.19% # Class of committed instruction
system.cpu.op_class_0::FloatMult                    0      0.00%     67.19% # Class of committed instruction
system.cpu.op_class_0::FloatMultAcc                 0      0.00%     67.19% # Class of committed instruction
system.cpu.op_class_0::FloatDiv                     0      0.00%     67.19% # Class of committed instruction
system.cpu.op_class_0::FloatMisc                    0      0.00%     67.19% # Class of committed instruction
system.cpu.op_class_0::FloatSqrt                    0      0.00%     67.19% # Class of committed instruction
system.cpu.op_class_0::SimdAdd                 241252      0.22%     67.41% # Class of committed instruction
system.cpu.op_class_0::SimdAddAcc                   0      0.00%     67.41% # Class of committed instruction
system.cpu.op_class_0::SimdAlu                 154720      0.14%     67.55% # Class of committed instruction
system.cpu.op_class_0::SimdCmp                 120626      0.11%     67.66% # Class of committed instruction
system.cpu.op_class_0::SimdCvt                      0      0.00%     67.66% # Class of committed instruction
system.cpu.op_class_0::SimdMisc                 44544      0.04%     67.70% # Class of committed instruction
system.cpu.op_class_0::SimdMult                     0      0.00%     67.70% # Class of committed instruction
system.cpu.op_class_0::SimdMultAcc                  0      0.00%     67.70% # Class of committed instruction
system.cpu.op_class_0::SimdShift                    0      0.00%     67.70% # Class of committed instruction
system.cpu.op_class_0::SimdShiftAcc                 0      0.00%     67.70% # Class of committed instruction
system.cpu.op_class_0::SimdDiv                      0      0.00%     67.70% # Class of committed instruction
system.cpu.op_class_0::SimdSqrt                     0      0.00%     67.70% # Class of committed instruction
system.cpu.op_class_0::SimdFloatAdd                 0      0.00%     67.70% # Class of committed instruction
system.cpu.op_class_0::SimdFloatAlu                 0      0.00%     67.70% # Class of committed instruction
system.cpu.op_class_0::SimdFloatCmp                 0      0.00%     67.70% # Class of committed instruction
system.cpu.op_class_0::SimdFloatCvt                 0      0.00%     67.70% # Class of committed instruction
system.cpu.op_class_0::SimdFloatDiv                 0      0.00%     67.70% # Class of committed instruction
system.cpu.op_class_0::SimdFloatMisc           166465      0.15%     67.85% # Class of committed instruction
system.cpu.op_class_0::SimdFloatMult                0      0.00%     67.85% # Class of committed instruction
system.cpu.op_class_0::SimdFloatMultAcc             0      0.00%     67.85% # Class of committed instruction
system.cpu.op_class_0::SimdFloatSqrt                0      0.00%     67.85% # Class of committed instruction
system.cpu.op_class_0::SimdReduceAdd                0      0.00%     67.85% # Class of committed instruction
system.cpu.op_class_0::SimdReduceAlu                0      0.00%     67.85% # Class of committed instruction
system.cpu.op_class_0::SimdReduceCmp                0      0.00%     67.85% # Class of committed instruction
system.cpu.op_class_0::SimdFloatReduceAdd            0      0.00%     67.85% # Class of committed instruction
system.cpu.op_class_0::SimdFloatReduceCmp            0      0.00%     67.85% # Class of committed instruction
system.cpu.op_class_0::SimdAes                      0      0.00%     67.85% # Class of committed instruction
system.cpu.op_class_0::SimdAesMix                   0      0.00%     67.85% # Class of committed instruction
system.cpu.op_class_0::SimdSha1Hash                 0      0.00%     67.85% # Class of committed instruction
system.cpu.op_class_0::SimdSha1Hash2                0      0.00%     67.85% # Class of committed instruction
system.cpu.op_class_0::SimdSha256Hash               0      0.00%     67.85% # Class of committed instruction
system.cpu.op_class_0::SimdSha256Hash2              0      0.00%     67.85% # Class of committed instruction
system.cpu.op_class_0::SimdShaSigma2                0      0.00%     67.85% # Class of committed instruction
system.cpu.op_class_0::SimdShaSigma3                0      0.00%     67.85% # Class of committed instruction
system.cpu.op_class_0::SimdPredAlu                  0      0.00%     67.85% # Class of committed instruction
system.cpu.op_class_0::MemRead               20646465     18.87%     86.72% # Class of committed instruction
system.cpu.op_class_0::MemWrite              14534197     13.28%    100.00% # Class of committed instruction
system.cpu.op_class_0::FloatMemRead                 0      0.00%    100.00% # Class of committed instruction
system.cpu.op_class_0::FloatMemWrite                0      0.00%    100.00% # Class of committed instruction
system.cpu.op_class_0::IprAccess                    0      0.00%    100.00% # Class of committed instruction
system.cpu.op_class_0::InstPrefetch                 0      0.00%    100.00% # Class of committed instruction
system.cpu.op_class_0::total                109431937                       # Class of committed instruction
system.cpu.tickCycles                       111832480                       # Number of cycles that the object actually ticked
system.cpu.workload.numSyscalls                    86                       # Number of system calls
system.membus.snoop_filter.hit_multi_requests            0                       # Number of requests hitting in the snoop filter with multiple (>1) holders of the requested data.
system.membus.snoop_filter.hit_multi_snoops            0                       # Number of snoops hitting in the snoop filter with multiple (>1) holders of the requested data.
system.membus.snoop_filter.hit_single_requests        37946                       # Number of requests hitting in the snoop filter with a single holder of the requested data.
system.membus.snoop_filter.hit_single_snoops            0                       # Number of snoops hitting in the snoop filter with a single holder of the requested data.
system.membus.snoop_filter.tot_requests         84572                       # Total number of requests made to the snoop filter.
system.membus.snoop_filter.tot_snoops               0                       # Total number of snoops made to the snoop filter.
system.tol2bus.snoop_filter.hit_multi_requests         3251                       # Number of requests hitting in the snoop filter with multiple (>1) holders of the requested data.
system.tol2bus.snoop_filter.hit_multi_snoops           12                       # Number of snoops hitting in the snoop filter with multiple (>1) holders of the requested data.
system.tol2bus.snoop_filter.hit_single_requests       265895                       # Number of requests hitting in the snoop filter with a single holder of the requested data.
system.tol2bus.snoop_filter.hit_single_snoops          652                       # Number of snoops hitting in the snoop filter with a single holder of the requested data.
system.tol2bus.snoop_filter.tot_requests       532534                       # Total number of requests made to the snoop filter.
system.tol2bus.snoop_filter.tot_snoops            664                       # Total number of snoops made to the snoop filter.
system.membus.pwrStateResidencyTicks::UNDEFINED 119056114000                       # Cumulative time (in ticks) in various power states
system.membus.trans_dist::ReadResp               7825                       # Transaction distribution
system.membus.trans_dist::WritebackDirty        37670                       # Transaction distribution
system.membus.trans_dist::CleanEvict              265                       # Transaction distribution
system.membus.trans_dist::ReadExReq             38812                       # Transaction distribution
system.membus.trans_dist::ReadExResp            38812                       # Transaction distribution
system.membus.trans_dist::ReadSharedReq          7825                       # Transaction distribution
system.membus.pkt_count_system.l2.mem_side::system.mem_ctrls.port       131209                       # Packet count per connected master and slave (bytes)
system.membus.pkt_count::total                 131209                       # Packet count per connected master and slave (bytes)
system.membus.pkt_size_system.l2.mem_side::system.mem_ctrls.port      5395648                       # Cumulative packet size per connected master and slave (bytes)
system.membus.pkt_size::total                 5395648                       # Cumulative packet size per connected master and slave (bytes)
system.membus.snoops                                0                       # Total snoops (count)
system.membus.snoopTraffic                          0                       # Total snoop traffic (bytes)
system.membus.snoop_fanout::samples             46637                       # Request fanout histogram
system.membus.snoop_fanout::mean                    0                       # Request fanout histogram
system.membus.snoop_fanout::stdev                   0                       # Request fanout histogram
system.membus.snoop_fanout::underflows              0      0.00%      0.00% # Request fanout histogram
system.membus.snoop_fanout::0                   46637    100.00%    100.00% # Request fanout histogram
system.membus.snoop_fanout::1                       0      0.00%    100.00% # Request fanout histogram
system.membus.snoop_fanout::overflows               0      0.00%    100.00% # Request fanout histogram
system.membus.snoop_fanout::min_value               0                       # Request fanout histogram
system.membus.snoop_fanout::max_value               0                       # Request fanout histogram
system.membus.snoop_fanout::total               46637                       # Request fanout histogram
system.membus.respLayer1.occupancy          252228500                       # Layer occupancy (ticks)
system.membus.respLayer1.utilization              0.2                       # Layer utilization (%)
system.membus.reqLayer0.occupancy           235252000                       # Layer occupancy (ticks)
system.membus.reqLayer0.utilization               0.2                       # Layer utilization (%)
system.tol2bus.pwrStateResidencyTicks::UNDEFINED 119056114000                       # Cumulative time (in ticks) in various power states
system.tol2bus.trans_dist::ReadResp            221672                       # Transaction distribution
system.tol2bus.trans_dist::WritebackDirty       107977                       # Transaction distribution
system.tol2bus.trans_dist::WritebackClean           32                       # Transaction distribution
system.tol2bus.trans_dist::CleanEvict          196440                       # Transaction distribution
system.tol2bus.trans_dist::ReadExReq            44971                       # Transaction distribution
system.tol2bus.trans_dist::ReadExResp           44971                       # Transaction distribution
system.tol2bus.trans_dist::ReadCleanReq           528                       # Transaction distribution
system.tol2bus.trans_dist::ReadSharedReq       221144                       # Transaction distribution
system.tol2bus.pkt_count_system.cpu.icache.mem_side::system.l2.cpu_side         1088                       # Packet count per connected master and slave (bytes)
system.tol2bus.pkt_count_system.cpu.dcache.mem_side::system.l2.cpu_side       798089                       # Packet count per connected master and slave (bytes)
system.tol2bus.pkt_count::total                799177                       # Packet count per connected master and slave (bytes)
system.tol2bus.pkt_size_system.cpu.icache.mem_side::system.l2.cpu_side        35840                       # Cumulative packet size per connected master and slave (bytes)
system.tol2bus.pkt_size_system.cpu.dcache.mem_side::system.l2.cpu_side     21531008                       # Cumulative packet size per connected master and slave (bytes)
system.tol2bus.pkt_size::total               21566848                       # Cumulative packet size per connected master and slave (bytes)
system.tol2bus.snoops                           38558                       # Total snoops (count)
system.tol2bus.snoopTraffic                   2410880                       # Total snoop traffic (bytes)
system.tol2bus.snoop_fanout::samples           305201                       # Request fanout histogram
system.tol2bus.snoop_fanout::mean            0.012880                       # Request fanout histogram
system.tol2bus.snoop_fanout::stdev           0.113105                       # Request fanout histogram
system.tol2bus.snoop_fanout::underflows             0      0.00%      0.00% # Request fanout histogram
system.tol2bus.snoop_fanout::0                 301282     98.72%     98.72% # Request fanout histogram
system.tol2bus.snoop_fanout::1                   3907      1.28%    100.00% # Request fanout histogram
system.tol2bus.snoop_fanout::2                     12      0.00%    100.00% # Request fanout histogram
system.tol2bus.snoop_fanout::overflows              0      0.00%    100.00% # Request fanout histogram
system.tol2bus.snoop_fanout::min_value              0                       # Request fanout histogram
system.tol2bus.snoop_fanout::max_value              2                       # Request fanout histogram
system.tol2bus.snoop_fanout::total             305201                       # Request fanout histogram
system.tol2bus.reqLayer0.occupancy          673212000                       # Layer occupancy (ticks)
system.tol2bus.reqLayer0.utilization              0.6                       # Layer utilization (%)
system.tol2bus.respLayer1.occupancy         798349995                       # Layer occupancy (ticks)
system.tol2bus.respLayer1.utilization             0.7                       # Layer utilization (%)
system.tol2bus.respLayer0.occupancy           1584999                       # Layer occupancy (ticks)
system.tol2bus.respLayer0.utilization             0.0                       # Layer utilization (%)
system.voltage_domain.voltage                       1                       # Voltage in Volts
system.clk_domain.clock                          1000                       # Clock period in ticks
system.l2.pwrStateResidencyTicks::UNDEFINED 119056114000                       # Cumulative time (in ticks) in various power states
system.l2.demand_hits::.cpu.inst                   15                       # number of demand (read+write) hits
system.l2.demand_hits::.cpu.data               219985                       # number of demand (read+write) hits
system.l2.demand_hits::total                   220000                       # number of demand (read+write) hits
system.l2.overall_hits::.cpu.inst                  15                       # number of overall hits
system.l2.overall_hits::.cpu.data              219985                       # number of overall hits
system.l2.overall_hits::total                  220000                       # number of overall hits
system.l2.demand_misses::.cpu.inst                513                       # number of demand (read+write) misses
system.l2.demand_misses::.cpu.data              46130                       # number of demand (read+write) misses
system.l2.demand_misses::total                  46643                       # number of demand (read+write) misses
system.l2.overall_misses::.cpu.inst               513                       # number of overall misses
system.l2.overall_misses::.cpu.data             46130                       # number of overall misses
system.l2.overall_misses::total                 46643                       # number of overall misses
system.l2.demand_miss_latency::.cpu.inst     50041000                       # number of demand (read+write) miss cycles
system.l2.demand_miss_latency::.cpu.data   4877513000                       # number of demand (read+write) miss cycles
system.l2.demand_miss_latency::total       4927554000                       # number of demand (read+write) miss cycles
system.l2.overall_miss_latency::.cpu.inst     50041000                       # number of overall miss cycles
system.l2.overall_miss_latency::.cpu.data   4877513000                       # number of overall miss cycles
system.l2.overall_miss_latency::total      4927554000                       # number of overall miss cycles
system.l2.demand_accesses::.cpu.inst              528                       # number of demand (read+write) accesses
system.l2.demand_accesses::.cpu.data           266115                       # number of demand (read+write) accesses
system.l2.demand_accesses::total               266643                       # number of demand (read+write) accesses
system.l2.overall_accesses::.cpu.inst             528                       # number of overall (read+write) accesses
system.l2.overall_accesses::.cpu.data          266115                       # number of overall (read+write) accesses
system.l2.overall_accesses::total              266643                       # number of overall (read+write) accesses
system.l2.demand_miss_rate::.cpu.inst        0.971591                       # miss rate for demand accesses
system.l2.demand_miss_rate::.cpu.data        0.173346                       # miss rate for demand accesses
system.l2.demand_miss_rate::total            0.174927                       # miss rate for demand accesses
system.l2.overall_miss_rate::.cpu.inst       0.971591                       # miss rate for overall accesses
system.l2.overall_miss_rate::.cpu.data       0.173346                       # miss rate for overall accesses
system.l2.overall_miss_rate::total           0.174927                       # miss rate for overall accesses
system.l2.demand_avg_miss_latency::.cpu.inst 97545.808967                       # average overall miss latency
system.l2.demand_avg_miss_latency::.cpu.data 105734.077607                       # average overall miss latency
system.l2.demand_avg_miss_latency::total 105644.019467                       # average overall miss latency
system.l2.overall_avg_miss_latency::.cpu.inst 97545.808967                       # average overall miss latency
system.l2.overall_avg_miss_latency::.cpu.data 105734.077607                       # average overall miss latency
system.l2.overall_avg_miss_latency::total 105644.019467                       # average overall miss latency
system.l2.blocked_cycles::no_mshrs                  0                       # number of cycles access was blocked
system.l2.blocked_cycles::no_targets                0                       # number of cycles access was blocked
system.l2.blocked::no_mshrs                         0                       # number of cycles access was blocked
system.l2.blocked::no_targets                       0                       # number of cycles access was blocked
system.l2.avg_blocked_cycles::no_mshrs            nan                       # average number of cycles each access was blocked
system.l2.avg_blocked_cycles::no_targets          nan                       # average number of cycles each access was blocked
system.l2.writebacks::.writebacks               37670                       # number of writebacks
system.l2.writebacks::total                     37670                       # number of writebacks
system.l2.demand_mshr_hits::.cpu.inst               1                       # number of demand (read+write) MSHR hits
system.l2.demand_mshr_hits::.cpu.data               5                       # number of demand (read+write) MSHR hits
system.l2.demand_mshr_hits::total                   6                       # number of demand (read+write) MSHR hits
system.l2.overall_mshr_hits::.cpu.inst              1                       # number of overall MSHR hits
system.l2.overall_mshr_hits::.cpu.data              5                       # number of overall MSHR hits
system.l2.overall_mshr_hits::total                  6                       # number of overall MSHR hits
system.l2.demand_mshr_misses::.cpu.inst           512                       # number of demand (read+write) MSHR misses
system.l2.demand_mshr_misses::.cpu.data         46125                       # number of demand (read+write) MSHR misses
system.l2.demand_mshr_misses::total             46637                       # number of demand (read+write) MSHR misses
system.l2.overall_mshr_misses::.cpu.inst          512                       # number of overall MSHR misses
system.l2.overall_mshr_misses::.cpu.data        46125                       # number of overall MSHR misses
system.l2.overall_mshr_misses::total            46637                       # number of overall MSHR misses
system.l2.demand_mshr_miss_latency::.cpu.inst     39721000                       # number of demand (read+write) MSHR miss cycles
system.l2.demand_mshr_miss_latency::.cpu.data   3954605000                       # number of demand (read+write) MSHR miss cycles
system.l2.demand_mshr_miss_latency::total   3994326000                       # number of demand (read+write) MSHR miss cycles
system.l2.overall_mshr_miss_latency::.cpu.inst     39721000                       # number of overall MSHR miss cycles
system.l2.overall_mshr_miss_latency::.cpu.data   3954605000                       # number of overall MSHR miss cycles
system.l2.overall_mshr_miss_latency::total   3994326000                       # number of overall MSHR miss cycles
system.l2.demand_mshr_miss_rate::.cpu.inst     0.969697                       # mshr miss rate for demand accesses
system.l2.demand_mshr_miss_rate::.cpu.data     0.173327                       # mshr miss rate for demand accesses
system.l2.demand_mshr_miss_rate::total       0.174904                       # mshr miss rate for demand accesses
system.l2.overall_mshr_miss_rate::.cpu.inst     0.969697                       # mshr miss rate for overall accesses
system.l2.overall_mshr_miss_rate::.cpu.data     0.173327                       # mshr miss rate for overall accesses
system.l2.overall_mshr_miss_rate::total      0.174904                       # mshr miss rate for overall accesses
system.l2.demand_avg_mshr_miss_latency::.cpu.inst 77580.078125                       # average overall mshr miss latency
system.l2.demand_avg_mshr_miss_latency::.cpu.data 85736.693767                       # average overall mshr miss latency
system.l2.demand_avg_mshr_miss_latency::total 85647.147115                       # average overall mshr miss latency
system.l2.overall_avg_mshr_miss_latency::.cpu.inst 77580.078125                       # average overall mshr miss latency
system.l2.overall_avg_mshr_miss_latency::.cpu.data 85736.693767                       # average overall mshr miss latency
system.l2.overall_avg_mshr_miss_latency::total 85647.147115                       # average overall mshr miss latency
system.l2.replacements                          38558                       # number of replacements
system.l2.WritebackDirty_hits::.writebacks        70307                       # number of WritebackDirty hits
system.l2.WritebackDirty_hits::total            70307                       # number of WritebackDirty hits
system.l2.WritebackDirty_accesses::.writebacks        70307                       # number of WritebackDirty accesses(hits+misses)
system.l2.WritebackDirty_accesses::total        70307                       # number of WritebackDirty accesses(hits+misses)
system.l2.WritebackClean_hits::.writebacks           31                       # number of WritebackClean hits
system.l2.WritebackClean_hits::total               31                       # number of WritebackClean hits
system.l2.WritebackClean_accesses::.writebacks           31                       # number of WritebackClean accesses(hits+misses)
system.l2.WritebackClean_accesses::total           31                       # number of WritebackClean accesses(hits+misses)
system.l2.CleanEvict_mshr_misses::.writebacks           41                       # number of CleanEvict MSHR misses
system.l2.CleanEvict_mshr_misses::total            41                       # number of CleanEvict MSHR misses
system.l2.CleanEvict_mshr_miss_rate::.writebacks          inf                       # mshr miss rate for CleanEvict accesses
system.l2.CleanEvict_mshr_miss_rate::total          inf                       # mshr miss rate for CleanEvict accesses
system.l2.ReadExReq_hits::.cpu.data              6159                       # number of ReadExReq hits
system.l2.ReadExReq_hits::total                  6159                       # number of ReadExReq hits
system.l2.ReadExReq_misses::.cpu.data           38812                       # number of ReadExReq misses
system.l2.ReadExReq_misses::total               38812                       # number of ReadExReq misses
system.l2.ReadExReq_miss_latency::.cpu.data   4073949000                       # number of ReadExReq miss cycles
system.l2.ReadExReq_miss_latency::total    4073949000                       # number of ReadExReq miss cycles
system.l2.ReadExReq_accesses::.cpu.data         44971                       # number of ReadExReq accesses(hits+misses)
system.l2.ReadExReq_accesses::total             44971                       # number of ReadExReq accesses(hits+misses)
system.l2.ReadExReq_miss_rate::.cpu.data     0.863045                       # miss rate for ReadExReq accesses
system.l2.ReadExReq_miss_rate::total         0.863045                       # miss rate for ReadExReq accesses
system.l2.ReadExReq_avg_miss_latency::.cpu.data 104966.221787                       # average ReadExReq miss latency
system.l2.ReadExReq_avg_miss_latency::total 104966.221787                       # average ReadExReq miss latency
system.l2.ReadExReq_mshr_misses::.cpu.data        38812                       # number of ReadExReq MSHR misses
system.l2.ReadExReq_mshr_misses::total          38812                       # number of ReadExReq MSHR misses
system.l2.ReadExReq_mshr_miss_latency::.cpu.data   3297709000                       # number of ReadExReq MSHR miss cycles
system.l2.ReadExReq_mshr_miss_latency::total   3297709000                       # number of ReadExReq MSHR miss cycles
system.l2.ReadExReq_mshr_miss_rate::.cpu.data     0.863045                       # mshr miss rate for ReadExReq accesses
system.l2.ReadExReq_mshr_miss_rate::total     0.863045                       # mshr miss rate for ReadExReq accesses
system.l2.ReadExReq_avg_mshr_miss_latency::.cpu.data 84966.221787                       # average ReadExReq mshr miss latency
system.l2.ReadExReq_avg_mshr_miss_latency::total 84966.221787                       # average ReadExReq mshr miss latency
system.l2.ReadCleanReq_hits::.cpu.inst             15                       # number of ReadCleanReq hits
system.l2.ReadCleanReq_hits::total                 15                       # number of ReadCleanReq hits
system.l2.ReadCleanReq_misses::.cpu.inst          513                       # number of ReadCleanReq misses
system.l2.ReadCleanReq_misses::total              513                       # number of ReadCleanReq misses
system.l2.ReadCleanReq_miss_latency::.cpu.inst     50041000                       # number of ReadCleanReq miss cycles
system.l2.ReadCleanReq_miss_latency::total     50041000                       # number of ReadCleanReq miss cycles
system.l2.ReadCleanReq_accesses::.cpu.inst          528                       # number of ReadCleanReq accesses(hits+misses)
system.l2.ReadCleanReq_accesses::total            528                       # number of ReadCleanReq accesses(hits+misses)
system.l2.ReadCleanReq_miss_rate::.cpu.inst     0.971591                       # miss rate for ReadCleanReq accesses
system.l2.ReadCleanReq_miss_rate::total      0.971591                       # miss rate for ReadCleanReq accesses
system.l2.ReadCleanReq_avg_miss_latency::.cpu.inst 97545.808967                       # average ReadCleanReq miss latency
system.l2.ReadCleanReq_avg_miss_latency::total 97545.808967                       # average ReadCleanReq miss latency
system.l2.ReadCleanReq_mshr_hits::.cpu.inst            1                       # number of ReadCleanReq MSHR hits
system.l2.ReadCleanReq_mshr_hits::total             1                       # number of ReadCleanReq MSHR hits
system.l2.ReadCleanReq_mshr_misses::.cpu.inst          512                       # number of ReadCleanReq MSHR misses
system.l2.ReadCleanReq_mshr_misses::total          512                       # number of ReadCleanReq MSHR misses
system.l2.ReadCleanReq_mshr_miss_latency::.cpu.inst     39721000                       # number of ReadCleanReq MSHR miss cycles
system.l2.ReadCleanReq_mshr_miss_latency::total     39721000                       # number of ReadCleanReq MSHR miss cycles
system.l2.ReadCleanReq_mshr_miss_rate::.cpu.inst     0.969697                       # mshr miss rate for ReadCleanReq accesses
system.l2.ReadCleanReq_mshr_miss_rate::total     0.969697                       # mshr miss rate for ReadCleanReq accesses
system.l2.ReadCleanReq_avg_mshr_miss_latency::.cpu.inst 77580.078125                       # average ReadCleanReq mshr miss latency
system.l2.ReadCleanReq_avg_mshr_miss_latency::total 77580.078125                       # average ReadCleanReq mshr miss latency
system.l2.ReadSharedReq_hits::.cpu.data        213826                       # number of ReadSharedReq hits
system.l2.ReadSharedReq_hits::total            213826                       # number of ReadSharedReq hits
system.l2.ReadSharedReq_misses::.cpu.data         7318                       # number of ReadSharedReq misses
system.l2.ReadSharedReq_misses::total            7318                       # number of ReadSharedReq misses
system.l2.ReadSharedReq_miss_latency::.cpu.data    803564000                       # number of ReadSharedReq miss cycles
system.l2.ReadSharedReq_miss_latency::total    803564000                       # number of ReadSharedReq miss cycles
system.l2.ReadSharedReq_accesses::.cpu.data       221144                       # number of ReadSharedReq accesses(hits+misses)
system.l2.ReadSharedReq_accesses::total        221144                       # number of ReadSharedReq accesses(hits+misses)
system.l2.ReadSharedReq_miss_rate::.cpu.data     0.033092                       # miss rate for ReadSharedReq accesses
system.l2.ReadSharedReq_miss_rate::total     0.033092                       # miss rate for ReadSharedReq accesses
system.l2.ReadSharedReq_avg_miss_latency::.cpu.data 109806.504509                       # average ReadSharedReq miss latency
system.l2.ReadSharedReq_avg_miss_latency::total 109806.504509                       # average ReadSharedReq miss latency
system.l2.ReadSharedReq_mshr_hits::.cpu.data            5                       # number of ReadSharedReq MSHR hits
system.l2.ReadSharedReq_mshr_hits::total            5                       # number of ReadSharedReq MSHR hits
system.l2.ReadSharedReq_mshr_misses::.cpu.data         7313                       # number of ReadSharedReq MSHR misses
system.l2.ReadSharedReq_mshr_misses::total         7313                       # number of ReadSharedReq MSHR misses
system.l2.ReadSharedReq_mshr_miss_latency::.cpu.data    656896000                       # number of ReadSharedReq MSHR miss cycles
system.l2.ReadSharedReq_mshr_miss_latency::total    656896000                       # number of ReadSharedReq MSHR miss cycles
system.l2.ReadSharedReq_mshr_miss_rate::.cpu.data     0.033069                       # mshr miss rate for ReadSharedReq accesses
system.l2.ReadSharedReq_mshr_miss_rate::total     0.033069                       # mshr miss rate for ReadSharedReq accesses
system.l2.ReadSharedReq_avg_mshr_miss_latency::.cpu.data 89825.789690                       # average ReadSharedReq mshr miss latency
system.l2.ReadSharedReq_avg_mshr_miss_latency::total 89825.789690                       # average ReadSharedReq mshr miss latency
system.l2.tags.pwrStateResidencyTicks::UNDEFINED 119056114000                       # Cumulative time (in ticks) in various power states
system.l2.tags.tagsinuse                  7976.803629                       # Cycle average of tags in use
system.l2.tags.total_refs                      529236                       # Total number of references to valid blocks.
system.l2.tags.sampled_refs                     46750                       # Sample count of references to valid blocks.
system.l2.tags.avg_refs                     11.320556                       # Average number of references to valid blocks.
system.l2.tags.warmup_cycle                     87000                       # Cycle when the warmup percentage was hit.
system.l2.tags.occ_blocks::.writebacks      20.045143                       # Average occupied blocks per requestor
system.l2.tags.occ_blocks::.cpu.inst        18.620194                       # Average occupied blocks per requestor
system.l2.tags.occ_blocks::.cpu.data      7938.138292                       # Average occupied blocks per requestor
system.l2.tags.occ_percent::.writebacks      0.002447                       # Average percentage of cache occupancy
system.l2.tags.occ_percent::.cpu.inst        0.002273                       # Average percentage of cache occupancy
system.l2.tags.occ_percent::.cpu.data        0.969011                       # Average percentage of cache occupancy
system.l2.tags.occ_percent::total            0.973731                       # Average percentage of cache occupancy
system.l2.tags.occ_task_id_blocks::1024          8192                       # Occupied blocks per task id
system.l2.tags.age_task_id_blocks_1024::0            2                       # Occupied blocks per task id
system.l2.tags.age_task_id_blocks_1024::1           16                       # Occupied blocks per task id
system.l2.tags.age_task_id_blocks_1024::2          230                       # Occupied blocks per task id
system.l2.tags.age_task_id_blocks_1024::3         2398                       # Occupied blocks per task id
system.l2.tags.age_task_id_blocks_1024::4         5546                       # Occupied blocks per task id
system.l2.tags.occ_task_id_percent::1024            1                       # Percentage of cache occupancy per task id
system.l2.tags.tag_accesses                   1105316                       # Number of tag accesses
system.l2.tags.data_accesses                  1105316                       # Number of data accesses
system.cpu_voltage_domain.voltage                   1                       # Voltage in Volts
system.mem_ctrls.pwrStateResidencyTicks::UNDEFINED 119056114000                       # Cumulative time (in ticks) in various power states
system.mem_ctrls.bytes_read::.cpu.inst          32768                       # Number of bytes read from this memory
system.mem_ctrls.bytes_read::.cpu.data        2952000                       # Number of bytes read from this memory
system.mem_ctrls.bytes_read::total            2984768                       # Number of bytes read from this memory
system.mem_ctrls.bytes_inst_read::.cpu.inst        32768                       # Number of instructions bytes read from this memory
system.mem_ctrls.bytes_inst_read::total         32768                       # Number of instructions bytes read from this memory
system.mem_ctrls.bytes_written::.writebacks      2410880                       # Number of bytes written to this memory
system.mem_ctrls.bytes_written::total         2410880                       # Number of bytes written to this memory
system.mem_ctrls.num_reads::.cpu.inst             512                       # Number of read requests responded to by this memory
system.mem_ctrls.num_reads::.cpu.data           46125                       # Number of read requests responded to by this memory
system.mem_ctrls.num_reads::total               46637                       # Number of read requests responded to by this memory
system.mem_ctrls.num_writes::.writebacks        37670                       # Number of write requests responded to by this memory
system.mem_ctrls.num_writes::total              37670                       # Number of write requests responded to by this memory
system.mem_ctrls.bw_read::.cpu.inst            275232                       # Total read bandwidth from this memory (bytes/s)
system.mem_ctrls.bw_read::.cpu.data          24795031                       # Total read bandwidth from this memory (bytes/s)
system.mem_ctrls.bw_read::total              25070262                       # Total read bandwidth from this memory (bytes/s)
system.mem_ctrls.bw_inst_read::.cpu.inst       275232                       # Instruction read bandwidth from this memory (bytes/s)
system.mem_ctrls.bw_inst_read::total           275232                       # Instruction read bandwidth from this memory (bytes/s)
system.mem_ctrls.bw_write::.writebacks       20249947                       # Write bandwidth from this memory (bytes/s)
system.mem_ctrls.bw_write::total             20249947                       # Write bandwidth from this memory (bytes/s)
system.mem_ctrls.bw_total::.writebacks       20249947                       # Total bandwidth to/from this memory (bytes/s)
system.mem_ctrls.bw_total::.cpu.inst           275232                       # Total bandwidth to/from this memory (bytes/s)
system.mem_ctrls.bw_total::.cpu.data         24795031                       # Total bandwidth to/from this memory (bytes/s)
system.mem_ctrls.bw_total::total             45320209                       # Total bandwidth to/from this memory (bytes/s)
system.mem_ctrls.avgPriority_.writebacks::samples     37670.00                       # Average QoS priority value for accepted requests
system.mem_ctrls.avgPriority_.cpu.inst::samples       512.00                       # Average QoS priority value for accepted requests
system.mem_ctrls.avgPriority_.cpu.data::samples     46104.00                       # Average QoS priority value for accepted requests
system.mem_ctrls.priorityMinLatency      0.000000018750                       # per QoS priority minimum request to response latency (s)
system.mem_ctrls.priorityMaxLatency      0.001143686500                       # per QoS priority maximum request to response latency (s)
system.mem_ctrls.numReadWriteTurnArounds         2112                       # Number of turnarounds from READ to WRITE
system.mem_ctrls.numWriteReadTurnArounds         2112                       # Number of turnarounds from WRITE to READ
system.mem_ctrls.numStayReadState              160867                       # Number of times bus staying in READ state
system.mem_ctrls.numStayWriteState              35617                       # Number of times bus staying in WRITE state
system.mem_ctrls.readReqs                       46637                       # Number of read requests accepted
system.mem_ctrls.writeReqs                      37670                       # Number of write requests accepted
system.mem_ctrls.readBursts                     46637                       # Number of DRAM read bursts, including those serviced by the write queue
system.mem_ctrls.writeBursts                    37670                       # Number of DRAM write bursts, including those merged in the write queue
system.mem_ctrls.servicedByWrQ                     21                       # Number of DRAM read bursts serviced by the write queue
system.mem_ctrls.mergedWrBursts                     0                       # Number of DRAM write bursts merged with an existing one
system.mem_ctrls.neitherReadNorWriteReqs            0                       # Number of requests that are neither read nor write
system.mem_ctrls.perBankRdBursts::0              2885                       # Per bank write bursts
system.mem_ctrls.perBankRdBursts::1              2760                       # Per bank write bursts
system.mem_ctrls.perBankRdBursts::2              2743                       # Per bank write bursts
system.mem_ctrls.perBankRdBursts::3              3071                       # Per bank write bursts
system.mem_ctrls.perBankRdBursts::4              3269                       # Per bank write bursts
system.mem_ctrls.perBankRdBursts::5              2856                       # Per bank write bursts
system.mem_ctrls.perBankRdBursts::6              2872                       # Per bank write bursts
system.mem_ctrls.perBankRdBursts::7              2894                       # Per bank write bursts
system.mem_ctrls.perBankRdBursts::8              2872                       # Per bank write bursts
system.mem_ctrls.perBankRdBursts::9              2908                       # Per bank write bursts
system.mem_ctrls.perBankRdBursts::10             2901                       # Per bank write bursts
system.mem_ctrls.perBankRdBursts::11             2937                       # Per bank write bursts
system.mem_ctrls.perBankRdBursts::12             2935                       # Per bank write bursts
system.mem_ctrls.perBankRdBursts::13             2877                       # Per bank write bursts
system.mem_ctrls.perBankRdBursts::14             2952                       # Per bank write bursts
system.mem_ctrls.perBankRdBursts::15             2884                       # Per bank write bursts
system.mem_ctrls.perBankWrBursts::0              2309                       # Per bank write bursts
system.mem_ctrls.perBankWrBursts::1              2217                       # Per bank write bursts
system.mem_ctrls.perBankWrBursts::2              2216                       # Per bank write bursts
system.mem_ctrls.perBankWrBursts::3              2432                       # Per bank write bursts
system.mem_ctrls.perBankWrBursts::4              2617                       # Per bank write bursts
system.mem_ctrls.perBankWrBursts::5              2343                       # Per bank write bursts
system.mem_ctrls.perBankWrBursts::6              2360                       # Per bank write bursts
system.mem_ctrls.perBankWrBursts::7              2355                       # Per bank write bursts
system.mem_ctrls.perBankWrBursts::8              2337                       # Per bank write bursts
system.mem_ctrls.perBankWrBursts::9              2340                       # Per bank write bursts
system.mem_ctrls.perBankWrBursts::10             2350                       # Per bank write bursts
system.mem_ctrls.perBankWrBursts::11             2366                       # Per bank write bursts
system.mem_ctrls.perBankWrBursts::12             2367                       # Per bank write bursts
system.mem_ctrls.perBankWrBursts::13             2339                       # Per bank write bursts
system.mem_ctrls.perBankWrBursts::14             2368                       # Per bank write bursts
system.mem_ctrls.perBankWrBursts::15             2339                       # Per bank write bursts
system.mem_ctrls.avgRdQLen                       1.05                       # Average read queue length when enqueuing
system.mem_ctrls.avgWrQLen                      24.07                       # Average write queue length when enqueuing
system.mem_ctrls.totQLat                    722902500                       # Total ticks spent queuing
system.mem_ctrls.totBusLat                  233080000                       # Total ticks spent in databus transfers
system.mem_ctrls.totMemAccLat              1596952500                       # Total ticks spent from burst creation until serviced by the DRAM
system.mem_ctrls.avgQLat                     15507.60                       # Average queueing delay per DRAM burst
system.mem_ctrls.avgBusLat                    5000.00                       # Average bus latency per DRAM burst
system.mem_ctrls.avgMemAccLat                34257.60                       # Average memory access latency per DRAM burst
system.mem_ctrls.numRdRetry                         0                       # Number of times read queue was full causing retry
system.mem_ctrls.numWrRetry                         0                       # Number of times write queue was full causing retry
system.mem_ctrls.readRowHits                    18291                       # Number of row buffer hits during reads
system.mem_ctrls.writeRowHits                   27832                       # Number of row buffer hits during writes
system.mem_ctrls.readRowHitRate                 39.24                       # Row buffer hit rate for reads
system.mem_ctrls.writeRowHitRate                73.88                       # Row buffer hit rate for writes
system.mem_ctrls.readPktSize::0                     0                       # Read request sizes (log2)
system.mem_ctrls.readPktSize::1                     0                       # Read request sizes (log2)
system.mem_ctrls.readPktSize::2                     0                       # Read request sizes (log2)
system.mem_ctrls.readPktSize::3                     0                       # Read request sizes (log2)
system.mem_ctrls.readPktSize::4                     0                       # Read request sizes (log2)
system.mem_ctrls.readPktSize::5                     0                       # Read request sizes (log2)
system.mem_ctrls.readPktSize::6                 46637                       # Read request sizes (log2)
system.mem_ctrls.writePktSize::0                    0                       # Write request sizes (log2)
system.mem_ctrls.writePktSize::1                    0                       # Write request sizes (log2)
system.mem_ctrls.writePktSize::2                    0                       # Write request sizes (log2)
system.mem_ctrls.writePktSize::3                    0                       # Write request sizes (log2)
system.mem_ctrls.writePktSize::4                    0                       # Write request sizes (log2)
system.mem_ctrls.writePktSize::5                    0                       # Write request sizes (log2)
system.mem_ctrls.writePktSize::6                37670                       # Write request sizes (log2)
system.mem_ctrls.rdQLenPdf::0                   44742                       # What read queue length does an incoming req see
system.mem_ctrls.rdQLenPdf::1                    1868                       # What read queue length does an incoming req see
system.mem_ctrls.rdQLenPdf::2                       6                       # What read queue length does an incoming req see
system.mem_ctrls.rdQLenPdf::3                       0                       # What read queue length does an incoming req see
system.mem_ctrls.rdQLenPdf::4                       0                       # What read queue length does an incoming req see
system.mem_ctrls.rdQLenPdf::5                       0                       # What read queue length does an incoming req see
system.mem_ctrls.rdQLenPdf::6                       0                       # What read queue length does an incoming req see
system.mem_ctrls.rdQLenPdf::7                       0                       # What read queue length does an incoming req see
system.mem_ctrls.rdQLenPdf::8                       0                       # What read queue length does an incoming req see
system.mem_ctrls.rdQLenPdf::9                       0                       # What read queue length does an incoming req see
system.mem_ctrls.rdQLenPdf::10                      0                       # What read queue length does an incoming req see
system.mem_ctrls.rdQLenPdf::11                      0                       # What read queue length does an incoming req see
system.mem_ctrls.rdQLenPdf::12                      0                       # What read queue length does an incoming req see
system.mem_ctrls.rdQLenPdf::13                      0                       # What read queue length does an incoming req see
system.mem_ctrls.rdQLenPdf::14                      0                       # What read queue length does an incoming req see
system.mem_ctrls.rdQLenPdf::15                      0                       # What read queue length does an incoming req see
system.mem_ctrls.rdQLenPdf::16                      0                       # What read queue length does an incoming req see
system.mem_ctrls.rdQLenPdf::17                      0                       # What read queue length does an incoming req see
system.mem_ctrls.rdQLenPdf::18                      0                       # What read queue length does an incoming req see
system.mem_ctrls.rdQLenPdf::19                      0                       # What read queue length does an incoming req see
system.mem_ctrls.rdQLenPdf::20                      0                       # What read queue length does an incoming req see
system.mem_ctrls.rdQLenPdf::21                      0                       # What read queue length does an incoming req see
system.mem_ctrls.rdQLenPdf::22                      0                       # What read queue length does an incoming req see
system.mem_ctrls.rdQLenPdf::23                      0                       # What read queue length does an incoming req see
system.mem_ctrls.rdQLenPdf::24                      0                       # What read queue length does an incoming req see
system.mem_ctrls.rdQLenPdf::25                      0                       # What read queue length does an incoming req see
system.mem_ctrls.rdQLenPdf::26                      0                       # What read queue length does an incoming req see
system.mem_ctrls.rdQLenPdf::27                      0                       # What read queue length does an incoming req see
system.mem_ctrls.rdQLenPdf::28                      0                       # What read queue length does an incoming req see
system.mem_ctrls.rdQLenPdf::29                      0                       # What read queue length does an incoming req see
system.mem_ctrls.rdQLenPdf::30                      0                       # What read queue length does an incoming req see
system.mem_ctrls.rdQLenPdf::31                      0                       # What read queue length does an incoming req see
system.mem_ctrls.wrQLenPdf::0                       1                       # What write queue length does an incoming req see
system.mem_ctrls.wrQLenPdf::1                       1                       # What write queue length does an incoming req see
system.mem_ctrls.wrQLenPdf::2                       1                       # What write queue length does an incoming req see
system.mem_ctrls.wrQLenPdf::3                       1                       # What write queue length does an incoming req see
system.mem_ctrls.wrQLenPdf::4                       1                       # What write queue length does an incoming req see
system.mem_ctrls.wrQLenPdf::5                       1                       # What write queue length does an incoming req see
system.mem_ctrls.wrQLenPdf::6                       1                       # What write queue length does an incoming req see
system.mem_ctrls.wrQLenPdf::7                       1                       # What write queue length does an incoming req see
system.mem_ctrls.wrQLenPdf::8                       1                       # What write queue length does an incoming req see
system.mem_ctrls.wrQLenPdf::9                       1                       # What write queue length does an incoming req see
system.mem_ctrls.wrQLenPdf::10                      1                       # What write queue length does an incoming req see
system.mem_ctrls.wrQLenPdf::11                      1                       # What write queue length does an incoming req see
system.mem_ctrls.wrQLenPdf::12                      1                       # What write queue length does an incoming req see
system.mem_ctrls.wrQLenPdf::13                      1                       # What write queue length does an incoming req see
system.mem_ctrls.wrQLenPdf::14                      1                       # What write queue length does an incoming req see
system.mem_ctrls.wrQLenPdf::15                   1841                       # What write queue length does an incoming req see
system.mem_ctrls.wrQLenPdf::16                   1847                       # What write queue length does an incoming req see
system.mem_ctrls.wrQLenPdf::17                   2109                       # What write queue length does an incoming req see
system.mem_ctrls.wrQLenPdf::18                   2118                       # What write queue length does an incoming req see
system.mem_ctrls.wrQLenPdf::19                   2120                       # What write queue length does an incoming req see
system.mem_ctrls.wrQLenPdf::20                   2122                       # What write queue length does an incoming req see
system.mem_ctrls.wrQLenPdf::21                   2118                       # What write queue length does an incoming req see
system.mem_ctrls.wrQLenPdf::22                   2124                       # What write queue length does an incoming req see
system.mem_ctrls.wrQLenPdf::23                   2139                       # What write queue length does an incoming req see
system.mem_ctrls.wrQLenPdf::24                   2122                       # What write queue length does an incoming req see
system.mem_ctrls.wrQLenPdf::25                   2132                       # What write queue length does an incoming req see
system.mem_ctrls.wrQLenPdf::26                   2120                       # What write queue length does an incoming req see
system.mem_ctrls.wrQLenPdf::27                   2128                       # What write queue length does an incoming req see
system.mem_ctrls.wrQLenPdf::28                   2156                       # What write queue length does an incoming req see
system.mem_ctrls.wrQLenPdf::29                   2118                       # What write queue length does an incoming req see
system.mem_ctrls.wrQLenPdf::30                   2115                       # What write queue length does an incoming req see
system.mem_ctrls.wrQLenPdf::31                   2112                       # What write queue length does an incoming req see
system.mem_ctrls.wrQLenPdf::32                   2112                       # What write queue length does an incoming req see
system.mem_ctrls.wrQLenPdf::33                      2                       # What write queue length does an incoming req see
system.mem_ctrls.wrQLenPdf::34                      0                       # What write queue length does an incoming req see
system.mem_ctrls.wrQLenPdf::35                      0                       # What write queue length does an incoming req see
system.mem_ctrls.wrQLenPdf::36                      0                       # What write queue length does an incoming req see
system.mem_ctrls.wrQLenPdf::37                      0                       # What write queue length does an incoming req see
system.mem_ctrls.wrQLenPdf::38                      0                       # What write queue length does an incoming req see
system.mem_ctrls.wrQLenPdf::39                      0                       # What write queue length does an incoming req see
system.mem_ctrls.wrQLenPdf::40                      0                       # What write queue length does an incoming req see
system.mem_ctrls.wrQLenPdf::41                      0                       # What write queue length does an incoming req see
system.mem_ctrls.wrQLenPdf::42                      0                       # What write queue length does an incoming req see
system.mem_ctrls.wrQLenPdf::43                      0                       # What write queue length does an incoming req see
system.mem_ctrls.wrQLenPdf::44                      0                       # What write queue length does an incoming req see
system.mem_ctrls.wrQLenPdf::45                      0                       # What write queue length does an incoming req see
system.mem_ctrls.wrQLenPdf::46                      0                       # What write queue length does an incoming req see
system.mem_ctrls.wrQLenPdf::47                      0                       # What write queue length does an incoming req see
system.mem_ctrls.wrQLenPdf::48                      0                       # What write queue length does an incoming req see
system.mem_ctrls.wrQLenPdf::49                      0                       # What write queue length does an incoming req see
system.mem_ctrls.wrQLenPdf::50                      0                       # What write queue length does an incoming req see
system.mem_ctrls.wrQLenPdf::51                      0                       # What write queue length does an incoming req see
system.mem_ctrls.wrQLenPdf::52                      0                       # What write queue length does an incoming req see
system.mem_ctrls.wrQLenPdf::53                      0                       # What write queue length does an incoming req see
system.mem_ctrls.wrQLenPdf::54                      0                       # What write queue length does an incoming req see
system.mem_ctrls.wrQLenPdf::55                      0                       # What write queue length does an incoming req see
system.mem_ctrls.wrQLenPdf::56                      0                       # What write queue length does an incoming req see
system.mem_ctrls.wrQLenPdf::57                      0                       # What write queue length does an incoming req see
system.mem_ctrls.wrQLenPdf::58                      0                       # What write queue length does an incoming req see
system.mem_ctrls.wrQLenPdf::59                      0                       # What write queue length does an incoming req see
system.mem_ctrls.wrQLenPdf::60                      0                       # What write queue length does an incoming req see
system.mem_ctrls.wrQLenPdf::61                      0                       # What write queue length does an incoming req see
system.mem_ctrls.wrQLenPdf::62                      0                       # What write queue length does an incoming req see
system.mem_ctrls.wrQLenPdf::63                      0                       # What write queue length does an incoming req see
system.mem_ctrls.bytesPerActivate::samples        38147                       # Bytes accessed per row activation
system.mem_ctrls.bytesPerActivate::mean    141.379820                       # Bytes accessed per row activation
system.mem_ctrls.bytesPerActivate::gmean   102.999155                       # Bytes accessed per row activation
system.mem_ctrls.bytesPerActivate::stdev   168.231841                       # Bytes accessed per row activation
system.mem_ctrls.bytesPerActivate::0-127        21865     57.32%     57.32% # Bytes accessed per row activation
system.mem_ctrls.bytesPerActivate::128-255        11730     30.75%     88.07% # Bytes accessed per row activation
system.mem_ctrls.bytesPerActivate::256-383         2192      5.75%     93.81% # Bytes accessed per row activation
system.mem_ctrls.bytesPerActivate::384-511          600      1.57%     95.39% # Bytes accessed per row activation
system.mem_ctrls.bytesPerActivate::512-639          365      0.96%     96.34% # Bytes accessed per row activation
system.mem_ctrls.bytesPerActivate::640-767          258      0.68%     97.02% # Bytes accessed per row activation
system.mem_ctrls.bytesPerActivate::768-895          308      0.81%     97.83% # Bytes accessed per row activation
system.mem_ctrls.bytesPerActivate::896-1023          371      0.97%     98.80% # Bytes accessed per row activation
system.mem_ctrls.bytesPerActivate::1024-1151          458      1.20%    100.00% # Bytes accessed per row activation
system.mem_ctrls.bytesPerActivate::total        38147                       # Bytes accessed per row activation
system.mem_ctrls.rdPerTurnAround::samples         2112                       # Reads before turning the bus around for writes
system.mem_ctrls.rdPerTurnAround::mean      22.071970                       # Reads before turning the bus around for writes
system.mem_ctrls.rdPerTurnAround::gmean     19.128172                       # Reads before turning the bus around for writes
system.mem_ctrls.rdPerTurnAround::stdev     84.116376                       # Reads before turning the bus around for writes
system.mem_ctrls.rdPerTurnAround::0-127          2107     99.76%     99.76% # Reads before turning the bus around for writes
system.mem_ctrls.rdPerTurnAround::256-383            3      0.14%     99.91% # Reads before turning the bus around for writes
[...]
system.cpu.icache.ReadReq_avg_miss_latency::total 100395.833333                       # average ReadReq miss latency
system.cpu.icache.ReadReq_mshr_misses::.cpu.inst          528                       # number of ReadReq MSHR misses
system.cpu.icache.ReadReq_mshr_misses::total          528                       # number of ReadReq MSHR misses
system.cpu.icache.ReadReq_mshr_miss_latency::.cpu.inst     51953000                       # number of ReadReq MSHR miss cycles
system.cpu.icache.ReadReq_mshr_miss_latency::total     51953000                       # number of ReadReq MSHR miss cycles
system.cpu.icache.ReadReq_mshr_miss_rate::.cpu.inst     0.000018                       # mshr miss rate for ReadReq accesses
system.cpu.icache.ReadReq_mshr_miss_rate::total     0.000018                       # mshr miss rate for ReadReq accesses
system.cpu.icache.ReadReq_avg_mshr_miss_latency::.cpu.inst 98395.833333                       # average ReadReq mshr miss latency
system.cpu.icache.ReadReq_avg_mshr_miss_latency::total 98395.833333                       # average ReadReq mshr miss latency
system.cpu.icache.tags.pwrStateResidencyTicks::UNDEFINED 119056114000                       # Cumulative time (in ticks) in various power states
system.cpu.icache.tags.tagsinuse           495.547373                       # Cycle average of tags in use
system.cpu.icache.tags.total_refs            28761816                       # Total number of references to valid blocks.
system.cpu.icache.tags.sampled_refs               528                       # Sample count of references to valid blocks.
system.cpu.icache.tags.avg_refs          54473.136364                       # Average number of references to valid blocks.
system.cpu.icache.tags.warmup_cycle            108000                       # Cycle when the warmup percentage was hit.
system.cpu.icache.tags.occ_blocks::.cpu.inst   495.547373                       # Average occupied blocks per requestor
system.cpu.icache.tags.occ_percent::.cpu.inst     0.483933                       # Average percentage of cache occupancy
system.cpu.icache.tags.occ_percent::total     0.483933                       # Average percentage of cache occupancy
system.cpu.icache.tags.occ_task_id_blocks::1024          496                       # Occupied blocks per task id
system.cpu.icache.tags.age_task_id_blocks_1024::4          496                       # Occupied blocks per task id
system.cpu.icache.tags.occ_task_id_percent::1024     0.484375                       # Percentage of cache occupancy per task id
system.cpu.icache.tags.tag_accesses          57524160                       # Number of tag accesses
system.cpu.icache.tags.data_accesses         57524160                       # Number of data accesses
system.cpu.dtb.walker.pwrStateResidencyTicks::UNDEFINED 119056114000                       # Cumulative time (in ticks) in various power states
system.cpu.dtb.stage2_mmu.stage2_tlb.walker.pwrStateResidencyTicks::UNDEFINED 119056114000                       # Cumulative time (in ticks) in various power states
system.cpu.dcache.pwrStateResidencyTicks::UNDEFINED 119056114000                       # Cumulative time (in ticks) in various power states
system.cpu.dcache.demand_hits::.cpu.data     35439796                       # number of demand (read+write) hits
system.cpu.dcache.demand_hits::total         35439796                       # number of demand (read+write) hits
system.cpu.dcache.overall_hits::.cpu.data     35443038                       # number of overall hits
system.cpu.dcache.overall_hits::total        35443038                       # number of overall hits
system.cpu.dcache.demand_misses::.cpu.data       297559                       # number of demand (read+write) misses
system.cpu.dcache.demand_misses::total         297559                       # number of demand (read+write) misses
system.cpu.dcache.overall_misses::.cpu.data       297678                       # number of overall misses
system.cpu.dcache.overall_misses::total        297678                       # number of overall misses
system.cpu.dcache.demand_miss_latency::.cpu.data  12536500000                       # number of demand (read+write) miss cycles
system.cpu.dcache.demand_miss_latency::total  12536500000                       # number of demand (read+write) miss cycles
system.cpu.dcache.overall_miss_latency::.cpu.data  12536500000                       # number of overall miss cycles
system.cpu.dcache.overall_miss_latency::total  12536500000                       # number of overall miss cycles
system.cpu.dcache.demand_accesses::.cpu.data     35737355                       # number of demand (read+write) accesses
system.cpu.dcache.demand_accesses::total     35737355                       # number of demand (read+write) accesses
system.cpu.dcache.overall_accesses::.cpu.data     35740716                       # number of overall (read+write) accesses
system.cpu.dcache.overall_accesses::total     35740716                       # number of overall (read+write) accesses
system.cpu.dcache.demand_miss_rate::.cpu.data     0.008326                       # miss rate for demand accesses
system.cpu.dcache.demand_miss_rate::total     0.008326                       # miss rate for demand accesses
system.cpu.dcache.overall_miss_rate::.cpu.data     0.008329                       # miss rate for overall accesses
system.cpu.dcache.overall_miss_rate::total     0.008329                       # miss rate for overall accesses
system.cpu.dcache.demand_avg_miss_latency::.cpu.data 42131.140379                       # average overall miss latency
system.cpu.dcache.demand_avg_miss_latency::total 42131.140379                       # average overall miss latency
system.cpu.dcache.overall_avg_miss_latency::.cpu.data 42114.298000                       # average overall miss latency
system.cpu.dcache.overall_avg_miss_latency::total 42114.298000                       # average overall miss latency
system.cpu.dcache.blocked_cycles::no_mshrs            0                       # number of cycles access was blocked
system.cpu.dcache.blocked_cycles::no_targets            0                       # number of cycles access was blocked
system.cpu.dcache.blocked::no_mshrs                 0                       # number of cycles access was blocked
system.cpu.dcache.blocked::no_targets               0                       # number of cycles access was blocked
system.cpu.dcache.avg_blocked_cycles::no_mshrs          nan                       # average number of cycles each access was blocked
system.cpu.dcache.avg_blocked_cycles::no_targets          nan                       # average number of cycles each access was blocked
system.cpu.dcache.writebacks::.writebacks        70307                       # number of writebacks
system.cpu.dcache.writebacks::total             70307                       # number of writebacks
system.cpu.dcache.demand_mshr_hits::.cpu.data        31558                       # number of demand (read+write) MSHR hits
system.cpu.dcache.demand_mshr_hits::total        31558                       # number of demand (read+write) MSHR hits
system.cpu.dcache.overall_mshr_hits::.cpu.data        31558                       # number of overall MSHR hits
system.cpu.dcache.overall_mshr_hits::total        31558                       # number of overall MSHR hits
system.cpu.dcache.demand_mshr_misses::.cpu.data       266001                       # number of demand (read+write) MSHR misses
system.cpu.dcache.demand_mshr_misses::total       266001                       # number of demand (read+write) MSHR misses
system.cpu.dcache.overall_mshr_misses::.cpu.data       266115                       # number of overall MSHR misses
system.cpu.dcache.overall_mshr_misses::total       266115                       # number of overall MSHR misses
system.cpu.dcache.demand_mshr_miss_latency::.cpu.data  10303009000                       # number of demand (read+write) MSHR miss cycles
system.cpu.dcache.demand_mshr_miss_latency::total  10303009000                       # number of demand (read+write) MSHR miss cycles
system.cpu.dcache.overall_mshr_miss_latency::.cpu.data  10307339000                       # number of overall MSHR miss cycles
system.cpu.dcache.overall_mshr_miss_latency::total  10307339000                       # number of overall MSHR miss cycles
system.cpu.dcache.demand_mshr_miss_rate::.cpu.data     0.007443                       # mshr miss rate for demand accesses
system.cpu.dcache.demand_mshr_miss_rate::total     0.007443                       # mshr miss rate for demand accesses
system.cpu.dcache.overall_mshr_miss_rate::.cpu.data     0.007446                       # mshr miss rate for overall accesses
system.cpu.dcache.overall_mshr_miss_rate::total     0.007446                       # mshr miss rate for overall accesses
system.cpu.dcache.demand_avg_mshr_miss_latency::.cpu.data 38732.970929                       # average overall mshr miss latency
system.cpu.dcache.demand_avg_mshr_miss_latency::total 38732.970929                       # average overall mshr miss latency
system.cpu.dcache.overall_avg_mshr_miss_latency::.cpu.data 38732.649418                       # average overall mshr miss latency
system.cpu.dcache.overall_avg_mshr_miss_latency::total 38732.649418                       # average overall mshr miss latency
system.cpu.dcache.replacements                 265859                       # number of replacements
system.cpu.dcache.ReadReq_hits::.cpu.data     21250719                       # number of ReadReq hits
system.cpu.dcache.ReadReq_hits::total        21250719                       # number of ReadReq hits
system.cpu.dcache.ReadReq_misses::.cpu.data       231885                       # number of ReadReq misses
system.cpu.dcache.ReadReq_misses::total        231885                       # number of ReadReq misses
system.cpu.dcache.ReadReq_miss_latency::.cpu.data   6722082000                       # number of ReadReq miss cycles
system.cpu.dcache.ReadReq_miss_latency::total   6722082000                       # number of ReadReq miss cycles
system.cpu.dcache.ReadReq_accesses::.cpu.data     21482604                       # number of ReadReq accesses(hits+misses)
system.cpu.dcache.ReadReq_accesses::total     21482604                       # number of ReadReq accesses(hits+misses)
system.cpu.dcache.ReadReq_miss_rate::.cpu.data     0.010794                       # miss rate for ReadReq accesses
system.cpu.dcache.ReadReq_miss_rate::total     0.010794                       # miss rate for ReadReq accesses
system.cpu.dcache.ReadReq_avg_miss_latency::.cpu.data 28988.860858                       # average ReadReq miss latency
system.cpu.dcache.ReadReq_avg_miss_latency::total 28988.860858                       # average ReadReq miss latency
system.cpu.dcache.ReadReq_mshr_hits::.cpu.data        10855                       # number of ReadReq MSHR hits
system.cpu.dcache.ReadReq_mshr_hits::total        10855                       # number of ReadReq MSHR hits
system.cpu.dcache.ReadReq_mshr_misses::.cpu.data       221030                       # number of ReadReq MSHR misses
system.cpu.dcache.ReadReq_mshr_misses::total       221030                       # number of ReadReq MSHR misses
system.cpu.dcache.ReadReq_mshr_miss_latency::.cpu.data   5961553000                       # number of ReadReq MSHR miss cycles
system.cpu.dcache.ReadReq_mshr_miss_latency::total   5961553000                       # number of ReadReq MSHR miss cycles
system.cpu.dcache.ReadReq_mshr_miss_rate::.cpu.data     0.010289                       # mshr miss rate for ReadReq accesses
system.cpu.dcache.ReadReq_mshr_miss_rate::total     0.010289                       # mshr miss rate for ReadReq accesses
system.cpu.dcache.ReadReq_avg_mshr_miss_latency::.cpu.data 26971.691626                       # average ReadReq mshr miss latency
system.cpu.dcache.ReadReq_avg_mshr_miss_latency::total 26971.691626                       # average ReadReq mshr miss latency
system.cpu.dcache.WriteReq_hits::.cpu.data     14189077                       # number of WriteReq hits
system.cpu.dcache.WriteReq_hits::total       14189077                       # number of WriteReq hits
system.cpu.dcache.WriteReq_misses::.cpu.data        65674                       # number of WriteReq misses
system.cpu.dcache.WriteReq_misses::total        65674                       # number of WriteReq misses
system.cpu.dcache.WriteReq_miss_latency::.cpu.data   5814418000                       # number of WriteReq miss cycles
system.cpu.dcache.WriteReq_miss_latency::total   5814418000                       # number of WriteReq miss cycles
system.cpu.dcache.WriteReq_accesses::.cpu.data     14254751                       # number of WriteReq accesses(hits+misses)
system.cpu.dcache.WriteReq_accesses::total     14254751                       # number of WriteReq accesses(hits+misses)
system.cpu.dcache.WriteReq_miss_rate::.cpu.data     0.004607                       # miss rate for WriteReq accesses
system.cpu.dcache.WriteReq_miss_rate::total     0.004607                       # miss rate for WriteReq accesses
system.cpu.dcache.WriteReq_avg_miss_latency::.cpu.data 88534.549441                       # average WriteReq miss latency
system.cpu.dcache.WriteReq_avg_miss_latency::total 88534.549441                       # average WriteReq miss latency
system.cpu.dcache.WriteReq_mshr_hits::.cpu.data        20703                       # number of WriteReq MSHR hits
system.cpu.dcache.WriteReq_mshr_hits::total        20703                       # number of WriteReq MSHR hits
system.cpu.dcache.WriteReq_mshr_misses::.cpu.data        44971                       # number of WriteReq MSHR misses
system.cpu.dcache.WriteReq_mshr_misses::total        44971                       # number of WriteReq MSHR misses
system.cpu.dcache.WriteReq_mshr_miss_latency::.cpu.data   4341456000                       # number of WriteReq MSHR miss cycles
system.cpu.dcache.WriteReq_mshr_miss_latency::total   4341456000                       # number of WriteReq MSHR miss cycles
system.cpu.dcache.WriteReq_mshr_miss_rate::.cpu.data     0.003155                       # mshr miss rate for WriteReq accesses
system.cpu.dcache.WriteReq_mshr_miss_rate::total     0.003155                       # mshr miss rate for WriteReq accesses
system.cpu.dcache.WriteReq_avg_mshr_miss_latency::.cpu.data 96539.014031                       # average WriteReq mshr miss latency
system.cpu.dcache.WriteReq_avg_mshr_miss_latency::total 96539.014031                       # average WriteReq mshr miss latency
system.cpu.dcache.SoftPFReq_hits::.cpu.data         3242                       # number of SoftPFReq hits
system.cpu.dcache.SoftPFReq_hits::total          3242                       # number of SoftPFReq hits
system.cpu.dcache.SoftPFReq_misses::.cpu.data          119                       # number of SoftPFReq misses
system.cpu.dcache.SoftPFReq_misses::total          119                       # number of SoftPFReq misses
system.cpu.dcache.SoftPFReq_accesses::.cpu.data         3361                       # number of SoftPFReq accesses(hits+misses)
system.cpu.dcache.SoftPFReq_accesses::total         3361                       # number of SoftPFReq accesses(hits+misses)
system.cpu.dcache.SoftPFReq_miss_rate::.cpu.data     0.035406                       # miss rate for SoftPFReq accesses
system.cpu.dcache.SoftPFReq_miss_rate::total     0.035406                       # miss rate for SoftPFReq accesses
system.cpu.dcache.SoftPFReq_mshr_misses::.cpu.data          114                       # number of SoftPFReq MSHR misses
system.cpu.dcache.SoftPFReq_mshr_misses::total          114                       # number of SoftPFReq MSHR misses
system.cpu.dcache.SoftPFReq_mshr_miss_latency::.cpu.data      4330000                       # number of SoftPFReq MSHR miss cycles
system.cpu.dcache.SoftPFReq_mshr_miss_latency::total      4330000                       # number of SoftPFReq MSHR miss cycles
system.cpu.dcache.SoftPFReq_mshr_miss_rate::.cpu.data     0.033918                       # mshr miss rate for SoftPFReq accesses
system.cpu.dcache.SoftPFReq_mshr_miss_rate::total     0.033918                       # mshr miss rate for SoftPFReq accesses
system.cpu.dcache.SoftPFReq_avg_mshr_miss_latency::.cpu.data 37982.456140                       # average SoftPFReq mshr miss latency
system.cpu.dcache.SoftPFReq_avg_mshr_miss_latency::total 37982.456140                       # average SoftPFReq mshr miss latency
system.cpu.dcache.LoadLockedReq_hits::.cpu.data        89082                       # number of LoadLockedReq hits
system.cpu.dcache.LoadLockedReq_hits::total        89082                       # number of LoadLockedReq hits
system.cpu.dcache.LoadLockedReq_accesses::.cpu.data        89082                       # number of LoadLockedReq accesses(hits+misses)
system.cpu.dcache.LoadLockedReq_accesses::total        89082                       # number of LoadLockedReq accesses(hits+misses)
system.cpu.dcache.StoreCondReq_hits::.cpu.data        89082                       # number of StoreCondReq hits
system.cpu.dcache.StoreCondReq_hits::total        89082                       # number of StoreCondReq hits
system.cpu.dcache.StoreCondReq_accesses::.cpu.data        89082                       # number of StoreCondReq accesses(hits+misses)
system.cpu.dcache.StoreCondReq_accesses::total        89082                       # number of StoreCondReq accesses(hits+misses)
system.cpu.dcache.tags.pwrStateResidencyTicks::UNDEFINED 119056114000                       # Cumulative time (in ticks) in various power states
system.cpu.dcache.tags.tagsinuse           255.836431                       # Cycle average of tags in use
system.cpu.dcache.tags.total_refs            35887317                       # Total number of references to valid blocks.
system.cpu.dcache.tags.sampled_refs            266115                       # Sample count of references to valid blocks.
system.cpu.dcache.tags.avg_refs            134.856423                       # Average number of references to valid blocks.
system.cpu.dcache.tags.warmup_cycle            240000                       # Cycle when the warmup percentage was hit.
system.cpu.dcache.tags.occ_blocks::.cpu.data   255.836431                       # Average occupied blocks per requestor
system.cpu.dcache.tags.occ_percent::.cpu.data     0.999361                       # Average percentage of cache occupancy
system.cpu.dcache.tags.occ_percent::total     0.999361                       # Average percentage of cache occupancy
system.cpu.dcache.tags.occ_task_id_blocks::1024          256                       # Occupied blocks per task id
system.cpu.dcache.tags.age_task_id_blocks_1024::0            7                       # Occupied blocks per task id
system.cpu.dcache.tags.age_task_id_blocks_1024::1           40                       # Occupied blocks per task id
system.cpu.dcache.tags.age_task_id_blocks_1024::2          179                       # Occupied blocks per task id
system.cpu.dcache.tags.age_task_id_blocks_1024::3           16                       # Occupied blocks per task id
system.cpu.dcache.tags.age_task_id_blocks_1024::4           14                       # Occupied blocks per task id
system.cpu.dcache.tags.occ_task_id_percent::1024            1                       # Percentage of cache occupancy per task id
system.cpu.dcache.tags.tag_accesses          72103875                       # Number of tag accesses
system.cpu.dcache.tags.data_accesses         72103875                       # Number of data accesses
system.cpu.itb.walker.pwrStateResidencyTicks::UNDEFINED 119056114000                       # Cumulative time (in ticks) in various power states
system.cpu.itb.stage2_mmu.stage2_tlb.walker.pwrStateResidencyTicks::UNDEFINED 119056114000                       # Cumulative time (in ticks) in various power states

---------- End Simulation Statistics   ----------
