
---------- Begin Simulation Statistics ----------
final_tick                               119279904000                       # Number of ticks from beginning of simulation (restored from checkpoints and never reset)
host_inst_rate                                 257723                       # Simulator instruction rate (inst/s)
host_mem_usage                                 681884                       # Number of bytes of host memory used
host_op_rate                                   282031                       # Simulator op (including micro ops) rate (op/s)
host_seconds                                   388.01                       # Real time elapsed on the host
host_tick_rate                              307411411                       # Simulator tick rate (ticks/s)
sim_freq                                 1000000000000                       # Frequency of simulated ticks
sim_insts                                   100000001                       # Number of instructions simulated
sim_ops                                     109431937                       # Number of ops (including micro ops) simulated
sim_seconds                                  0.119280                       # Number of seconds simulated
sim_ticks                                119279904000                       # Number of ticks simulated
system.cpu.branchPred.BTBCorrect                    0                       # Number of correct BTB predictions (this stat may not work properly.
system.cpu.branchPred.BTBHitPct             87.596981                       # BTB Hit Percentage
system.cpu.branchPred.BTBHits                 8748109                       # Number of BTB hits
system.cpu.branchPred.BTBLookups              9986770                       # Number of BTB lookups
system.cpu.branchPred.RASInCorrect                348                       # Number of incorrect RAS predictions.
system.cpu.branchPred.condIncorrect            155024                       # Number of conditional branches incorrect
system.cpu.branchPred.condPredicted          16528335                       # Number of conditional branches predicted
system.cpu.branchPred.indirectHits             300026                       # Number of indirect target hits.
system.cpu.branchPred.indirectLookups          540257                       # Number of indirect predictor lookups.
system.cpu.branchPred.indirectMisses           240231                       # Number of indirect misses.
system.cpu.branchPred.lookups                20635769                       # Number of BP lookups
system.cpu.branchPred.usedRAS                 1050694                       # Number of times the RAS was used to get a target.
system.cpu.branchPredindirectMispredicted         1210                       # Number of mispredicted indirect branches.
system.cpu.committedInsts                   100000001                       # Number of instructions committed
system.cpu.committedOps                     109431937                       # Number of ops (including micro ops) committed
system.cpu.cpi                               1.192799                       # CPI: cycles per instruction
system.cpu.discardedOps                        734030                       # Number of ops (including micro ops) which were discarded before commit
system.cpu.dtb.accesses                             0                       # DTB accesses
system.cpu.dtb.align_faults                         0                       # Number of TLB faults due to alignment restrictions
system.cpu.dtb.domain_faults                        0                       # Number of TLB faults due to domain restrictions
system.cpu.dtb.flush_entries                        0                       # Number of entries that have been flushed from TLB
system.cpu.dtb.flush_tlb                            0                       # Number of times complete TLB was flushed
system.cpu.dtb.flush_tlb_asid                       0                       # Number of times TLB was flushed by ASID
system.cpu.dtb.flush_tlb_mva                        0                       # Number of times TLB was flushed by MVA
system.cpu.dtb.flush_tlb_mva_asid                   0                       # Number of times TLB was flushed by MVA & ASID
system.cpu.dtb.hits                                 0                       # DTB hits
system.cpu.dtb.inst_accesses                        0                       # ITB inst accesses
system.cpu.dtb.inst_hits                            0                       # ITB inst hits
system.cpu.dtb.inst_misses                          0                       # ITB inst misses
system.cpu.dtb.misses                               0                       # DTB misses
system.cpu.dtb.perms_faults                         0                       # Number of TLB faults due to permissions restrictions
system.cpu.dtb.prefetch_faults                      0                       # Number of TLB faults due to prefetch
system.cpu.dtb.read_accesses                        0                       # DTB read accesses
system.cpu.dtb.read_hits                            0                       # DTB read hits
system.cpu.dtb.read_misses                          0                       # DTB read misses
system.cpu.dtb.stage2_mmu.stage2_tlb.accesses            0                       # DTB accesses
system.cpu.dtb.stage2_mmu.stage2_tlb.align_faults            0                       # Number of TLB faults due to alignment restrictions
system.cpu.dtb.stage2_mmu.stage2_tlb.domain_faults            0                       # Number of TLB faults due to domain restrictions
system.cpu.dtb.stage2_mmu.stage2_tlb.flush_entries            0                       # Number of entries that have been flushed from TLB
system.cpu.dtb.stage2_mmu.stage2_tlb.flush_tlb            0                       # Number of times complete TLB was flushed
system.cpu.dtb.stage2_mmu.stage2_tlb.flush_tlb_asid            0                       # Number of times TLB was flushed by ASID
system.cpu.dtb.stage2_mmu.stage2_tlb.flush_tlb_mva            0                       # Number of times TLB was flushed by MVA
system.cpu.dtb.stage2_mmu.stage2_tlb.flush_tlb_mva_asid            0                       # Number of times TLB was flushed by MVA & ASID
system.cpu.dtb.stage2_mmu.stage2_tlb.hits            0                       # DTB hits
system.cpu.dtb.stage2_mmu.stage2_tlb.inst_accesses            0                       # ITB inst accesses
system.cpu.dtb.stage2_mmu.stage2_tlb.inst_hits            0                       # ITB inst hits
system.cpu.dtb.stage2_mmu.stage2_tlb.inst_misses            0                       # ITB inst misses
system.cpu.dtb.stage2_mmu.stage2_tlb.misses            0                       # DTB misses
system.cpu.dtb.stage2_mmu.stage2_tlb.perms_faults            0                       # Number of TLB faults due to permissions restrictions
system.cpu.dtb.stage2_mmu.stage2_tlb.prefetch_faults            0                       # Number of TLB faults due to prefetch
system.cpu.dtb.stage2_mmu.stage2_tlb.read_accesses            0                       # DTB read accesses
system.cpu.dtb.stage2_mmu.stage2_tlb.read_hits            0                       # DTB read hits
system.cpu.dtb.stage2_mmu.stage2_tlb.read_misses            0                       # DTB read misses
system.cpu.dtb.stage2_mmu.stage2_tlb.walker.walkRequestOrigin_Requested::Data            0                       # Table walker requests started/completed, data/inst
system.cpu.dtb.stage2_mmu.stage2_tlb.walker.walkRequestOrigin_Requested::Inst            0                       # Table walker requests started/completed, data/inst
system.cpu.dtb.stage2_mmu.stage2_tlb.walker.walkRequestOrigin_Requested::total            0                       # Table walker requests started/completed, data/inst
system.cpu.dtb.stage2_mmu.stage2_tlb.walker.walkRequestOrigin_Completed::Data            0                       # Table walker requests started/completed, data/inst
system.cpu.dtb.stage2_mmu.stage2_tlb.walker.walkRequestOrigin_Completed::Inst            0                       # Table walker requests started/completed, data/inst
system.cpu.dtb.stage2_mmu.stage2_tlb.walker.walkRequestOrigin_Completed::total            0                       # Table walker requests started/completed, data/inst
system.cpu.dtb.stage2_mmu.stage2_tlb.walker.walkRequestOrigin::total            0                       # Table walker requests started/completed, data/inst
system.cpu.dtb.stage2_mmu.stage2_tlb.walker.walks            0                       # Table walker walks requested
system.cpu.dtb.stage2_mmu.stage2_tlb.write_accesses            0                       # DTB write accesses
system.cpu.dtb.stage2_mmu.stage2_tlb.write_hits            0                       # DTB write hits
system.cpu.dtb.stage2_mmu.stage2_tlb.write_misses            0                       # DTB write misses
system.cpu.dtb.walker.walkRequestOrigin_Requested::Data            0                       # Table walker requests started/completed, data/inst
system.cpu.dtb.walker.walkRequestOrigin_Requested::Inst            0                       # Table walker requests started/completed, data/inst
system.cpu.dtb.walker.walkRequestOrigin_Requested::total            0                       # Table walker requests started/completed, data/inst
system.cpu.dtb.walker.walkRequestOrigin_Completed::Data            0                       # Table walker requests started/completed, data/inst
system.cpu.dtb.walker.walkRequestOrigin_Completed::Inst            0                       # Table walker requests started/completed, data/inst
system.cpu.dtb.walker.walkRequestOrigin_Completed::total            0                       # Table walker requests started/completed, data/inst
system.cpu.dtb.walker.walkRequestOrigin::total            0                       # Table walker requests started/completed, data/inst
system.cpu.dtb.walker.walks                         0                       # Table walker walks requested
system.cpu.dtb.write_accesses                       0                       # DTB write accesses
system.cpu.dtb.write_hits                           0                       # DTB write hits
system.cpu.dtb.write_misses                         0                       # DTB write misses
system.cpu.fetch2.amo_instructions                  0                       # Number of memory atomic instructions successfully decoded
system.cpu.fetch2.fp_instructions                   0                       # Number of floating point instructions successfully decoded
system.cpu.fetch2.int_instructions           49968163                       # Number of integer instructions successfully decoded
system.cpu.fetch2.load_instructions          17199450                       # Number of memory load instructions successfully decoded
system.cpu.fetch2.store_instructions         10036376                       # Number of memory store instructions successfully decoded
system.cpu.fetch2.vec_instructions                  0                       # Number of SIMD instructions successfully decoded
system.cpu.idleCycles                         7455520                       # Total number of cycles that the object has spent stopped
system.cpu.ipc                               0.838364                       # IPC: instructions per cycle
system.cpu.itb.accesses                             0                       # DTB accesses
system.cpu.itb.align_faults                         0                       # Number of TLB faults due to alignment restrictions
system.cpu.itb.domain_faults                        0                       # Number of TLB faults due to domain restrictions
system.cpu.itb.flush_entries                        0                       # Number of entries that have been flushed from TLB
system.cpu.itb.flush_tlb                            0                       # Number of times complete TLB was flushed
system.cpu.itb.flush_tlb_asid                       0                       # Number of times TLB was flushed by ASID
system.cpu.itb.flush_tlb_mva                        0                       # Number of times TLB was flushed by MVA
system.cpu.itb.flush_tlb_mva_asid                   0                       # Number of times TLB was flushed by MVA & ASID
system.cpu.itb.hits                                 0                       # DTB hits
system.cpu.itb.inst_accesses                        0                       # ITB inst accesses
system.cpu.itb.inst_hits                            0                       # ITB inst hits
system.cpu.itb.inst_misses                          0                       # ITB inst misses
system.cpu.itb.misses                               0                       # DTB misses
system.cpu.itb.perms_faults                         0                       # Number of TLB faults due to permissions restrictions
system.cpu.itb.prefetch_faults                      0                       # Number of TLB faults due to prefetch
system.cpu.itb.read_accesses                        0                       # DTB read accesses
system.cpu.itb.read_hits                            0                       # DTB read hits
system.cpu.itb.read_misses                          0                       # DTB read misses
system.cpu.itb.stage2_mmu.stage2_tlb.accesses            0                       # DTB accesses
system.cpu.itb.stage2_mmu.stage2_tlb.align_faults            0                       # Number of TLB faults due to alignment restrictions
system.cpu.itb.stage2_mmu.stage2_tlb.domain_faults            0                       # Number of TLB faults due to domain restrictions
system.cpu.itb.stage2_mmu.stage2_tlb.flush_entries            0                       # Number of entries that have been flushed from TLB
system.cpu.itb.stage2_mmu.stage2_tlb.flush_tlb            0                       # Number of times complete TLB was flushed
system.cpu.itb.stage2_mmu.stage2_tlb.flush_tlb_asid            0                       # Number of times TLB was flushed by ASID
system.cpu.itb.stage2_mmu.stage2_tlb.flush_tlb_mva            0                       # Number of times TLB was flushed by MVA
system.cpu.itb.stage2_mmu.stage2_tlb.flush_tlb_mva_asid            0                       # Number of times TLB was flushed by MVA & ASID
system.cpu.itb.stage2_mmu.stage2_tlb.hits            0                       # DTB hits
system.cpu.itb.stage2_mmu.stage2_tlb.inst_accesses            0                       # ITB inst accesses
system.cpu.itb.stage2_mmu.stage2_tlb.inst_hits            0                       # ITB inst hits
system.cpu.itb.stage2_mmu.stage2_tlb.inst_misses            0                       # ITB inst misses
system.cpu.itb.stage2_mmu.stage2_tlb.misses            0                       # DTB misses
system.cpu.itb.stage2_mmu.stage2_tlb.perms_faults            0                       # Number of TLB faults due to permissions restrictions
system.cpu.itb.stage2_mmu.stage2_tlb.prefetch_faults            0                       # Number of TLB faults due to prefetch
system.cpu.itb.stage2_mmu.stage2_tlb.read_accesses            0                       # DTB read accesses
system.cpu.itb.stage2_mmu.stage2_tlb.read_hits            0                       # DTB read hits
system.cpu.itb.stage2_mmu.stage2_tlb.read_misses            0                       # DTB read misses
system.cpu.itb.stage2_mmu.stage2_tlb.walker.walkRequestOrigin_Requested::Data            0                       # Table walker requests started/completed, data/inst
system.cpu.itb.stage2_mmu.stage2_tlb.walker.walkRequestOrigin_Requested::Inst            0                       # Table walker requests started/completed, data/inst
system.cpu.itb.stage2_mmu.stage2_tlb.walker.walkRequestOrigin_Requested::total            0                       # Table walker requests started/completed, data/inst
system.cpu.itb.stage2_mmu.stage2_tlb.walker.walkRequestOrigin_Completed::Data            0                       # Table walker requests started/completed, data/inst
system.cpu.itb.stage2_mmu.stage2_tlb.walker.walkRequestOrigin_Completed::Inst            0                       # Table walker requests started/completed, data/inst
system.cpu.itb.stage2_mmu.stage2_tlb.walker.walkRequestOrigin_Completed::total            0                       # Table walker requests started/completed, data/inst
system.cpu.itb.stage2_mmu.stage2_tlb.walker.walkRequestOrigin::total            0                       # Table walker requests started/completed, data/inst
system.cpu.itb.stage2_mmu.stage2_tlb.walker.walks            0                       # Table walker walks requested
system.cpu.itb.stage2_mmu.stage2_tlb.write_accesses            0                       # DTB write accesses
system.cpu.itb.stage2_mmu.stage2_tlb.write_hits            0                       # DTB write hits
system.cpu.itb.stage2_mmu.stage2_tlb.write_misses            0                       # DTB write misses
system.cpu.itb.walker.walkRequestOrigin_Requested::Data            0                       # Table walker requests started/completed, data/inst
system.cpu.itb.walker.walkRequestOrigin_Requested::Inst            0                       # Table walker requests started/completed, data/inst
system.cpu.itb.walker.walkRequestOrigin_Requested::total            0                       # Table walker requests started/completed, data/inst
system.cpu.itb.walker.walkRequestOrigin_Completed::Data            0                       # Table walker requests started/completed, data/inst
system.cpu.itb.walker.walkRequestOrigin_Completed::Inst            0                       # Table walker requests started/completed, data/inst
system.cpu.itb.walker.walkRequestOrigin_Completed::total            0                       # Table walker requests started/completed, data/inst
system.cpu.itb.walker.walkRequestOrigin::total            0                       # Table walker requests started/completed, data/inst
system.cpu.itb.walker.walks                         0                       # Table walker walks requested
system.cpu.itb.write_accesses                       0                       # DTB write accesses
system.cpu.itb.write_hits                           0                       # DTB write hits
system.cpu.itb.write_misses                         0                       # DTB write misses
system.cpu.numCycles                        119279904                       # number of cpu cycles simulated
system.cpu.numFetchSuspends                         0                       # Number of times Execute suspended instruction fetching
system.cpu.numWorkItemsCompleted                    0                       # number of work items this cpu completed
system.cpu.numWorkItemsStarted                      0                       # number of work items this cpu started
system.cpu.op_class_0::No_OpClass                   0      0.00%      0.00% # Class of committed instruction
system.cpu.op_class_0::IntAlu                72955303     66.67%     66.67% # Class of committed instruction
system.cpu.op_class_0::IntMult                 568365      0.52%     67.19% # Class of committed instruction
system.cpu.op_class_0::IntDiv                       0      0.00%     67.19% # Class of committed instruction
system.cpu.op_class_0::FloatAdd                     0      0.00%     67.19% # Class of committed instruction
system.cpu.op_class_0::FloatCmp                     0      0.00%     67.19% # Class of committed instruction
system.cpu.op_class_0::FloatCvt                     0      0.00%     67.19% # Class of committed instruction
system.cpu.op_class_0::FloatMult                    0      0.00%     67.19% # Class of committed instruction
system.cpu.op_class_0::FloatMultAcc                 0      0.00%     67.19% # Class of committed instruction
system.cpu.op_class_0::FloatDiv                     0      0.00%     67.19% # Class of committed instruction
system.cpu.op_class_0::FloatMisc                    0      0.00%     67.19% # Class of committed instruction
system.cpu.op_class_0::FloatSqrt                    0      0.00%     67.19% # Class of committed instruction
system.cpu.op_class_0::SimdAdd                 241252      0.22%     67.41% # Class of committed instruction
system.cpu.op_class_0::SimdAddAcc                   0      0.00%     67.41% # Class of committed instruction
system.cpu.op_class_0::SimdAlu                 154720      0.14%     67.55% # Class of committed instruction
system.cpu.op_class_0::SimdCmp                 120626      0.11%     67.66% # Class of committed instruction
system.cpu.op_class_0::SimdCvt                      0      0.00%     67.66% # Class of committed instruction
system.cpu.op_class_0::SimdMisc                 44544      0.04%     67.70% # Class of committed instruction
system.cpu.op_class_0::SimdMult                     0      0.00%     67.70% # Class of committed instruction
system.cpu.op_class_0::SimdMultAcc                  0      0.00%     67.70% # Class of committed instruction
system.cpu.op_class_0::SimdShift                    0      0.00%     67.70% # Class of committed instruction
system.cpu.op_class_0::SimdShiftAcc                 0      0.00%     67.70% # Class of committed instruction
system.cpu.op_class_0::SimdDiv                      0      0.00%     67.70% # Class of committed instruction
system.cpu.op_class_0::SimdSqrt                     0      0.00%     67.70% # Class of committed instruction
system.cpu.op_class_0::SimdFloatAdd                 0      0.00%     67.70% # Class of committed instruction
system.cpu.op_class_0::SimdFloatAlu                 0      0.00%     67.70% # Class of committed instruction
system.cpu.op_class_0::SimdFloatCmp                 0      0.00%     67.70% # Class of committed instruction
system.cpu.op_class_0::SimdFloatCvt                 0      0.00%     67.70% # Class of committed instruction
system.cpu.op_class_0::SimdFloatDiv                 0      0.00%     67.70% # Class of committed instruction
system.cpu.op_class_0::SimdFloatMisc           166465      0.15%     67.85% # Class of committed instruction
system.cpu.op_class_0::SimdFloatMult                0      0.00%     67.85% # Class of committed instruction
system.cpu.op_class_0::SimdFloatMultAcc             0      0.00%     67.85% # Class of committed instruction
system.cpu.op_class_0::SimdFloatSqrt                0      0.00%     67.85% # Class of committed instruction
system.cpu.op_class_0::SimdReduceAdd                0      0.00%     67.85% # Class of committed instruction
system.cpu.op_class_0::SimdReduceAlu                0      0.00%     67.85% # Class of committed instruction
system.cpu.op_class_0::SimdReduceCmp                0      0.00%     67.85% # Class of committed instruction
system.cpu.op_class_0::SimdFloatReduceAdd            0      0.00%     67.85% # Class of committed instruction
system.cpu.op_class_0::SimdFloatReduceCmp            0      0.00%     67.85% # Class of committed instruction
system.cpu.op_class_0::SimdAes                      0      0.00%     67.85% # Class of committed instruction
system.cpu.op_class_0::SimdAesMix                   0      0.00%     67.85% # Class of committed instruction
system.cpu.op_class_0::SimdSha1Hash                 0      0.00%     67.85% # Class of committed instruction
system.cpu.op_class_0::SimdSha1Hash2                0      0.00%     67.85% # Class of committed instruction
system.cpu.op_class_0::SimdSha256Hash               0      0.00%     67.85% # Class of committed instruction
system.cpu.op_class_0::SimdSha256Hash2              0      0.00%     67.85% # Class of committed instruction
system.cpu.op_class_0::SimdShaSigma2                0      0.00%     67.85% # Class of committed instruction
system.cpu.op_class_0::SimdShaSigma3                0      0.00%     67.85% # Class of committed instruction
system.cpu.op_class_0::SimdPredAlu                  0      0.00%     67.85% # Class of committed instruction
system.cpu.op_class_0::MemRead               20646465     18.87%     86.72% # Class of committed instruction
system.cpu.op_class_0::MemWrite              14534197     13.28%    100.00% # Class of committed instruction
system.cpu.op_class_0::FloatMemRead                 0      0.00%    100.00% # Class of committed instruction
system.cpu.op_class_0::FloatMemWrite                0      0.00%    100.00% # Class of committed instruction
system.cpu.op_class_0::IprAccess                    0      0.00%    100.00% # Class of committed instruction
system.cpu.op_class_0::InstPrefetch                 0      0.00%    100.00% # Class of committed instruction
system.cpu.op_class_0::total                109431937                       # Class of committed instruction
system.cpu.tickCycles                       111824384                       # Number of cycles that the object actually ticked
system.cpu.workload.numSyscalls                    86                       # Number of system calls
system.membus.snoop_filter.hit_multi_requests            0                       # Number of requests hitting in the snoop filter with multiple (>1) holders of the requested data.
system.membus.snoop_filter.hit_multi_snoops            0                       # Number of snoops hitting in the snoop filter with multiple (>1) holders of the requested data.
system.membus.snoop_filter.hit_single_requests        44720                       # Number of requests hitting in the snoop filter with a single holder of the requested data.
system.membus.snoop_filter.hit_single_snoops            0                       # Number of snoops hitting in the snoop filter with a single holder of the requested data.
system.membus.snoop_filter.tot_requests         94007                       # Total number of requests made to the snoop filter.
system.membus.snoop_filter.tot_snoops               0                       # Total number of snoops made to the snoop filter.
system.tol2bus.snoop_filter.hit_multi_requests         3251                       # Number of requests hitting in the snoop filter with multiple (>1) holders of the requested data.
system.tol2bus.snoop_filter.hit_multi_snoops           34                       # Number of snoops hitting in the snoop filter with multiple (>1) holders of the requested data.
system.tol2bus.snoop_filter.hit_single_requests       265900                       # Number of requests hitting in the snoop filter with a single holder of the requested data.
system.tol2bus.snoop_filter.hit_single_snoops          969                       # Number of snoops hitting in the snoop filter with a single holder of the requested data.
system.tol2bus.snoop_filter.tot_requests       532544                       # Total number of requests made to the snoop filter.
system.tol2bus.snoop_filter.tot_snoops           1003                       # Total number of snoops made to the snoop filter.
system.membus.pwrStateResidencyTicks::UNDEFINED 119279904000                       # Cumulative time (in ticks) in various power states
system.membus.trans_dist::ReadResp              10508                       # Transaction distribution
system.membus.trans_dist::WritebackDirty        43892                       # Transaction distribution
system.membus.trans_dist::CleanEvict              795                       # Transaction distribution
system.membus.trans_dist::ReadExReq             38812                       # Transaction distribution
system.membus.trans_dist::ReadExResp            38812                       # Transaction distribution
system.membus.trans_dist::ReadSharedReq         10508                       # Transaction distribution
system.membus.pkt_count_system.l2.mem_side::system.mem_ctrls.port       143327                       # Packet count per connected master and slave (bytes)
system.membus.pkt_count::total                 143327                       # Packet count per connected master and slave (bytes)
system.membus.pkt_size_system.l2.mem_side::system.mem_ctrls.port      5965568                       # Cumulative packet size per connected master and slave (bytes)
system.membus.pkt_size::total                 5965568                       # Cumulative packet size per connected master and slave (bytes)
system.membus.snoops                                0                       # Total snoops (count)
system.membus.snoopTraffic                          0                       # Total snoop traffic (bytes)
system.membus.snoop_fanout::samples             49320                       # Request fanout histogram
system.membus.snoop_fanout::mean                    0                       # Request fanout histogram
system.membus.snoop_fanout::stdev                   0                       # Request fanout histogram
system.membus.snoop_fanout::underflows              0      0.00%      0.00% # Request fanout histogram
system.membus.snoop_fanout::0                   49320    100.00%    100.00% # Request fanout histogram
system.membus.snoop_fanout::1                       0      0.00%    100.00% # Request fanout histogram
system.membus.snoop_fanout::overflows               0      0.00%    100.00% # Request fanout histogram
system.membus.snoop_fanout::min_value               0                       # Request fanout histogram
system.membus.snoop_fanout::max_value               0                       # Request fanout histogram
system.membus.snoop_fanout::total               49320                       # Request fanout histogram
system.membus.respLayer1.occupancy          267198000                       # Layer occupancy (ticks)
system.membus.respLayer1.utilization              0.2                       # Layer utilization (%)
system.membus.reqLayer0.occupancy           269575000                       # Layer occupancy (ticks)
system.membus.reqLayer0.utilization               0.2                       # Layer utilization (%)
system.tol2bus.pwrStateResidencyTicks::UNDEFINED 119279904000                       # Cumulative time (in ticks) in various power states
system.tol2bus.trans_dist::ReadResp            221671                       # Transaction distribution
system.tol2bus.trans_dist::WritebackDirty       114203                       # Transaction distribution
system.tol2bus.trans_dist::WritebackClean           32                       # Transaction distribution
system.tol2bus.trans_dist::CleanEvict          197238                       # Transaction distribution
system.tol2bus.trans_dist::ReadExReq            44977                       # Transaction distribution
system.tol2bus.trans_dist::ReadExResp           44977                       # Transaction distribution
system.tol2bus.trans_dist::ReadCleanReq           528                       # Transaction distribution
system.tol2bus.trans_dist::ReadSharedReq       221143                       # Transaction distribution
system.tol2bus.pkt_count_system.cpu.icache.mem_side::system.l2.cpu_side         1088                       # Packet count per connected master and slave (bytes)
system.tol2bus.pkt_count_system.cpu.dcache.mem_side::system.l2.cpu_side       798104                       # Packet count per connected master and slave (bytes)
system.tol2bus.pkt_count::total                799192                       # Packet count per connected master and slave (bytes)
system.tol2bus.pkt_size_system.cpu.icache.mem_side::system.l2.cpu_side        35840                       # Cumulative packet size per connected master and slave (bytes)
system.tol2bus.pkt_size_system.cpu.dcache.mem_side::system.l2.cpu_side     21531584                       # Cumulative packet size per connected master and slave (bytes)
system.tol2bus.pkt_size::total               21567424                       # Cumulative packet size per connected master and slave (bytes)
system.tol2bus.snoops                           45577                       # Total snoops (count)
system.tol2bus.snoopTraffic                   2809088                       # Total snoop traffic (bytes)
system.tol2bus.snoop_fanout::samples           312225                       # Request fanout histogram
system.tol2bus.snoop_fanout::mean            0.013746                       # Request fanout histogram
system.tol2bus.snoop_fanout::stdev           0.117369                       # Request fanout histogram
system.tol2bus.snoop_fanout::underflows             0      0.00%      0.00% # Request fanout histogram
system.tol2bus.snoop_fanout::0                 307967     98.64%     98.64% # Request fanout histogram
system.tol2bus.snoop_fanout::1                   4224      1.35%     99.99% # Request fanout histogram
system.tol2bus.snoop_fanout::2                     34      0.01%    100.00% # Request fanout histogram
system.tol2bus.snoop_fanout::overflows              0      0.00%    100.00% # Request fanout histogram
system.tol2bus.snoop_fanout::min_value              0                       # Request fanout histogram
system.tol2bus.snoop_fanout::max_value              2                       # Request fanout histogram
system.tol2bus.snoop_fanout::total             312225                       # Request fanout histogram
system.tol2bus.reqLayer0.occupancy          673230000                       # Layer occupancy (ticks)
system.tol2bus.reqLayer0.utilization              0.6                       # Layer utilization (%)
system.tol2bus.respLayer1.occupancy         798364995                       # Layer occupancy (ticks)
system.tol2bus.respLayer1.utilization             0.7                       # Layer utilization (%)
system.tol2bus.respLayer0.occupancy           1584999                       # Layer occupancy (ticks)
system.tol2bus.respLayer0.utilization             0.0                       # Layer utilization (%)
system.voltage_domain.voltage                       1                       # Voltage in Volts
system.clk_domain.clock                          1000                       # Clock period in ticks
system.l2.pwrStateResidencyTicks::UNDEFINED 119279904000                       # Cumulative time (in ticks) in various power states
system.l2.demand_hits::.cpu.inst                   15                       # number of demand (read+write) hits
system.l2.demand_hits::.cpu.data               217307                       # number of demand (read+write) hits
system.l2.demand_hits::total                   217322                       # number of demand (read+write) hits
system.l2.overall_hits::.cpu.inst                  15                       # number of overall hits
system.l2.overall_hits::.cpu.data              217307                       # number of overall hits
system.l2.overall_hits::total                  217322                       # number of overall hits
system.l2.demand_misses::.cpu.inst                513                       # number of demand (read+write) misses
system.l2.demand_misses::.cpu.data              48813                       # number of demand (read+write) misses
system.l2.demand_misses::total                  49326                       # number of demand (read+write) misses
system.l2.overall_misses::.cpu.inst               513                       # number of overall misses
system.l2.overall_misses::.cpu.data             48813                       # number of overall misses
system.l2.overall_misses::total                 49326                       # number of overall misses
system.l2.demand_miss_latency::.cpu.inst     50030000                       # number of demand (read+write) miss cycles
system.l2.demand_miss_latency::.cpu.data   5171096000                       # number of demand (read+write) miss cycles
system.l2.demand_miss_latency::total       5221126000                       # number of demand (read+write) miss cycles
system.l2.overall_miss_latency::.cpu.inst     50030000                       # number of overall miss cycles
system.l2.overall_miss_latency::.cpu.data   5171096000                       # number of overall miss cycles
system.l2.overall_miss_latency::total      5221126000                       # number of overall miss cycles
system.l2.demand_accesses::.cpu.inst              528                       # number of demand (read+write) accesses
system.l2.demand_accesses::.cpu.data           266120                       # number of demand (read+write) accesses
system.l2.demand_accesses::total               266648                       # number of demand (read+write) accesses
system.l2.overall_accesses::.cpu.inst             528                       # number of overall (read+write) accesses
system.l2.overall_accesses::.cpu.data          266120                       # number of overall (read+write) accesses
system.l2.overall_accesses::total              266648                       # number of overall (read+write) accesses
system.l2.demand_miss_rate::.cpu.inst        0.971591                       # miss rate for demand accesses
system.l2.demand_miss_rate::.cpu.data        0.183425                       # miss rate for demand accesses
system.l2.demand_miss_rate::total            0.184985                       # miss rate for demand accesses
system.l2.overall_miss_rate::.cpu.inst       0.971591                       # miss rate for overall accesses
system.l2.overall_miss_rate::.cpu.data       0.183425                       # miss rate for overall accesses
system.l2.overall_miss_rate::total           0.184985                       # miss rate for overall accesses
system.l2.demand_avg_miss_latency::.cpu.inst 97524.366472                       # average overall miss latency
system.l2.demand_avg_miss_latency::.cpu.data 105936.861082                       # average overall miss latency
system.l2.demand_avg_miss_latency::total 105849.369501                       # average overall miss latency
system.l2.overall_avg_miss_latency::.cpu.inst 97524.366472                       # average overall miss latency
system.l2.overall_avg_miss_latency::.cpu.data 105936.861082                       # average overall miss latency
system.l2.overall_avg_miss_latency::total 105849.369501                       # average overall miss latency
system.l2.blocked_cycles::no_mshrs                  0                       # number of cycles access was blocked
system.l2.blocked_cycles::no_targets                0                       # number of cycles access was blocked
system.l2.blocked::no_mshrs                         0                       # number of cycles access was blocked
system.l2.blocked::no_targets                       0                       # number of cycles access was blocked
system.l2.avg_blocked_cycles::no_mshrs            nan                       # average number of cycles each access was blocked
system.l2.avg_blocked_cycles::no_targets          nan                       # average number of cycles each access was blocked
system.l2.writebacks::.writebacks               43892                       # number of writebacks
system.l2.writebacks::total                     43892                       # number of writebacks
system.l2.demand_mshr_hits::.cpu.inst               1                       # number of demand (read+write) MSHR hits
system.l2.demand_mshr_hits::.cpu.data               5                       # number of demand (read+write) MSHR hits
system.l2.demand_mshr_hits::total                   6                       # number of demand (read+write) MSHR hits
system.l2.overall_mshr_hits::.cpu.inst              1                       # number of overall MSHR hits
system.l2.overall_mshr_hits::.cpu.data              5                       # number of overall MSHR hits
system.l2.overall_mshr_hits::total                  6                       # number of overall MSHR hits
system.l2.demand_mshr_misses::.cpu.inst           512                       # number of demand (read+write) MSHR misses
system.l2.demand_mshr_misses::.cpu.data         48808                       # number of demand (read+write) MSHR misses
system.l2.demand_mshr_misses::total             49320                       # number of demand (read+write) MSHR misses
system.l2.overall_mshr_misses::.cpu.inst          512                       # number of overall MSHR misses
system.l2.overall_mshr_misses::.cpu.data        48808                       # number of overall MSHR misses
system.l2.overall_mshr_misses::total            49320                       # number of overall MSHR misses
system.l2.demand_mshr_miss_latency::.cpu.inst     39710000                       # number of demand (read+write) MSHR miss cycles
system.l2.demand_mshr_miss_latency::.cpu.data   4194528000                       # number of demand (read+write) MSHR miss cycles
system.l2.demand_mshr_miss_latency::total   4234238000                       # number of demand (read+write) MSHR miss cycles
system.l2.overall_mshr_miss_latency::.cpu.inst     39710000                       # number of overall MSHR miss cycles
system.l2.overall_mshr_miss_latency::.cpu.data   4194528000                       # number of overall MSHR miss cycles
system.l2.overall_mshr_miss_latency::total   4234238000                       # number of overall MSHR miss cycles
system.l2.demand_mshr_miss_rate::.cpu.inst     0.969697                       # mshr miss rate for demand accesses
system.l2.demand_mshr_miss_rate::.cpu.data     0.183406                       # mshr miss rate for demand accesses
system.l2.demand_mshr_miss_rate::total       0.184963                       # mshr miss rate for demand accesses
system.l2.overall_mshr_miss_rate::.cpu.inst     0.969697                       # mshr miss rate for overall accesses
system.l2.overall_mshr_miss_rate::.cpu.data     0.183406                       # mshr miss rate for overall accesses
system.l2.overall_mshr_miss_rate::total      0.184963                       # mshr miss rate for overall accesses
system.l2.demand_avg_mshr_miss_latency::.cpu.inst 77558.593750                       # average overall mshr miss latency
system.l2.demand_avg_mshr_miss_latency::.cpu.data 85939.354204                       # average overall mshr miss latency
system.l2.demand_avg_mshr_miss_latency::total 85852.351987                       # average overall mshr miss latency
system.l2.overall_avg_mshr_miss_latency::.cpu.inst 77558.593750                       # average overall mshr miss latency
system.l2.overall_avg_mshr_miss_latency::.cpu.data 85939.354204                       # average overall mshr miss latency
system.l2.overall_avg_mshr_miss_latency::total 85852.351987                       # average overall mshr miss latency
system.l2.replacements                          45577                       # number of replacements
system.l2.WritebackDirty_hits::.writebacks        70311                       # number of WritebackDirty hits
system.l2.WritebackDirty_hits::total            70311                       # number of WritebackDirty hits
system.l2.WritebackDirty_accesses::.writebacks        70311                       # number of WritebackDirty accesses(hits+misses)
system.l2.WritebackDirty_accesses::total        70311                       # number of WritebackDirty accesses(hits+misses)
system.l2.WritebackClean_hits::.writebacks           31                       # number of WritebackClean hits
system.l2.WritebackClean_hits::total               31                       # number of WritebackClean hits
system.l2.WritebackClean_accesses::.writebacks           31                       # number of WritebackClean accesses(hits+misses)
system.l2.WritebackClean_accesses::total           31                       # number of WritebackClean accesses(hits+misses)
system.l2.CleanEvict_mshr_misses::.writebacks          113                       # number of CleanEvict MSHR misses
system.l2.CleanEvict_mshr_misses::total           113                       # number of CleanEvict MSHR misses
system.l2.CleanEvict_mshr_miss_rate::.writebacks          inf                       # mshr miss rate for CleanEvict accesses
system.l2.CleanEvict_mshr_miss_rate::total          inf                       # mshr miss rate for CleanEvict accesses
system.l2.ReadExReq_hits::.cpu.data              6165                       # number of ReadExReq hits
system.l2.ReadExReq_hits::total                  6165                       # number of ReadExReq hits
system.l2.ReadExReq_misses::.cpu.data           38812                       # number of ReadExReq misses
system.l2.ReadExReq_misses::total               38812                       # number of ReadExReq misses
system.l2.ReadExReq_miss_latency::.cpu.data   4073410000                       # number of ReadExReq miss cycles
system.l2.ReadExReq_miss_latency::total    4073410000                       # number of ReadExReq miss cycles
system.l2.ReadExReq_accesses::.cpu.data         44977                       # number of ReadExReq accesses(hits+misses)
system.l2.ReadExReq_accesses::total             44977                       # number of ReadExReq accesses(hits+misses)
system.l2.ReadExReq_miss_rate::.cpu.data     0.862930                       # miss rate for ReadExReq accesses
system.l2.ReadExReq_miss_rate::total         0.862930                       # miss rate for ReadExReq accesses
system.l2.ReadExReq_avg_miss_latency::.cpu.data 104952.334330                       # average ReadExReq miss latency
system.l2.ReadExReq_avg_miss_latency::total 104952.334330                       # average ReadExReq miss latency
system.l2.ReadExReq_mshr_misses::.cpu.data        38812                       # number of ReadExReq MSHR misses
system.l2.ReadExReq_mshr_misses::total          38812                       # number of ReadExReq MSHR misses
system.l2.ReadExReq_mshr_miss_latency::.cpu.data   3297170000                       # number of ReadExReq MSHR miss cycles
system.l2.ReadExReq_mshr_miss_latency::total   3297170000                       # number of ReadExReq MSHR miss cycles
system.l2.ReadExReq_mshr_miss_rate::.cpu.data     0.862930                       # mshr miss rate for ReadExReq accesses
system.l2.ReadExReq_mshr_miss_rate::total     0.862930                       # mshr miss rate for ReadExReq accesses
system.l2.ReadExReq_avg_mshr_miss_latency::.cpu.data 84952.334330                       # average ReadExReq mshr miss latency
system.l2.ReadExReq_avg_mshr_miss_latency::total 84952.334330                       # average ReadExReq mshr miss latency
system.l2.ReadCleanReq_hits::.cpu.inst             15                       # number of ReadCleanReq hits
system.l2.ReadCleanReq_hits::total                 15                       # number of ReadCleanReq hits
system.l2.ReadCleanReq_misses::.cpu.inst          513                       # number of ReadCleanReq misses
system.l2.ReadCleanReq_misses::total              513                       # number of ReadCleanReq misses
system.l2.ReadCleanReq_miss_latency::.cpu.inst     50030000                       # number of ReadCleanReq miss cycles
system.l2.ReadCleanReq_miss_latency::total     50030000                       # number of ReadCleanReq miss cycles
system.l2.ReadCleanReq_accesses::.cpu.inst          528                       # number of ReadCleanReq accesses(hits+misses)
system.l2.ReadCleanReq_accesses::total            528                       # number of ReadCleanReq accesses(hits+misses)
system.l2.ReadCleanReq_miss_rate::.cpu.inst     0.971591                       # miss rate for ReadCleanReq accesses
system.l2.ReadCleanReq_miss_rate::total      0.971591                       # miss rate for ReadCleanReq accesses
system.l2.ReadCleanReq_avg_miss_latency::.cpu.inst 97524.366472                       # average ReadCleanReq miss latency
system.l2.ReadCleanReq_avg_miss_latency::total 97524.366472                       # average ReadCleanReq miss latency
system.l2.ReadCleanReq_mshr_hits::.cpu.inst            1                       # number of ReadCleanReq MSHR hits
system.l2.ReadCleanReq_mshr_hits::total             1                       # number of ReadCleanReq MSHR hits
system.l2.ReadCleanReq_mshr_misses::.cpu.inst          512                       # number of ReadCleanReq MSHR misses
system.l2.ReadCleanReq_mshr_misses::total          512                       # number of ReadCleanReq MSHR misses
system.l2.ReadCleanReq_mshr_miss_latency::.cpu.inst     39710000                       # number of ReadCleanReq MSHR miss cycles
system.l2.ReadCleanReq_mshr_miss_latency::total     39710000                       # number of ReadCleanReq MSHR miss cycles
system.l2.ReadCleanReq_mshr_miss_rate::.cpu.inst     0.969697                       # mshr miss rate for ReadCleanReq accesses
system.l2.ReadCleanReq_mshr_miss_rate::total     0.969697                       # mshr miss rate for ReadCleanReq accesses
system.l2.ReadCleanReq_avg_mshr_miss_latency::.cpu.inst 77558.593750                       # average ReadCleanReq mshr miss latency
system.l2.ReadCleanReq_avg_mshr_miss_latency::total 77558.593750                       # average ReadCleanReq mshr miss latency
system.l2.ReadSharedReq_hits::.cpu.data        211142                       # number of ReadSharedReq hits
system.l2.ReadSharedReq_hits::total            211142                       # number of ReadSharedReq hits
system.l2.ReadSharedReq_misses::.cpu.data        10001                       # number of ReadSharedReq misses
system.l2.ReadSharedReq_misses::total           10001                       # number of ReadSharedReq misses
system.l2.ReadSharedReq_miss_latency::.cpu.data   1097686000                       # number of ReadSharedReq miss cycles
system.l2.ReadSharedReq_miss_latency::total   1097686000                       # number of ReadSharedReq miss cycles
system.l2.ReadSharedReq_accesses::.cpu.data       221143                       # number of ReadSharedReq accesses(hits+misses)
system.l2.ReadSharedReq_accesses::total        221143                       # number of ReadSharedReq accesses(hits+misses)
system.l2.ReadSharedReq_miss_rate::.cpu.data     0.045224                       # miss rate for ReadSharedReq accesses
system.l2.ReadSharedReq_miss_rate::total     0.045224                       # miss rate for ReadSharedReq accesses
system.l2.ReadSharedReq_avg_miss_latency::.cpu.data 109757.624238                       # average ReadSharedReq miss latency
system.l2.ReadSharedReq_avg_miss_latency::total 109757.624238                       # average ReadSharedReq miss latency
system.l2.ReadSharedReq_mshr_hits::.cpu.data            5                       # number of ReadSharedReq MSHR hits
system.l2.ReadSharedReq_mshr_hits::total            5                       # number of ReadSharedReq MSHR hits
system.l2.ReadSharedReq_mshr_misses::.cpu.data         9996                       # number of ReadSharedReq MSHR misses
system.l2.ReadSharedReq_mshr_misses::total         9996                       # number of ReadSharedReq MSHR misses
system.l2.ReadSharedReq_mshr_miss_latency::.cpu.data    897358000                       # number of ReadSharedReq MSHR miss cycles
system.l2.ReadSharedReq_mshr_miss_latency::total    897358000                       # number of ReadSharedReq MSHR miss cycles
system.l2.ReadSharedReq_mshr_miss_rate::.cpu.data     0.045202                       # mshr miss rate for ReadSharedReq accesses
system.l2.ReadSharedReq_mshr_miss_rate::total     0.045202                       # mshr miss rate for ReadSharedReq accesses
system.l2.ReadSharedReq_avg_mshr_miss_latency::.cpu.data 89771.708683                       # average ReadSharedReq mshr miss latency
system.l2.ReadSharedReq_avg_mshr_miss_latency::total 89771.708683                       # average ReadSharedReq mshr miss latency
system.l2.tags.pwrStateResidencyTicks::UNDEFINED 119279904000                       # Cumulative time (in ticks) in various power states
system.l2.tags.tagsinuse                  4053.621675                       # Cycle average of tags in use
system.l2.tags.total_refs                      529174                       # Total number of references to valid blocks.
system.l2.tags.sampled_refs                     49673                       # Sample count of references to valid blocks.
system.l2.tags.avg_refs                     10.653152                       # Average number of references to valid blocks.
system.l2.tags.warmup_cycle                     87000                       # Cycle when the warmup percentage was hit.
system.l2.tags.occ_blocks::.writebacks      22.760988                       # Average occupied blocks per requestor
system.l2.tags.occ_blocks::.cpu.inst         9.377609                       # Average occupied blocks per requestor
system.l2.tags.occ_blocks::.cpu.data      4021.483078                       # Average occupied blocks per requestor
system.l2.tags.occ_percent::.writebacks      0.005557                       # Average percentage of cache occupancy
system.l2.tags.occ_percent::.cpu.inst        0.002289                       # Average percentage of cache occupancy
system.l2.tags.occ_percent::.cpu.data        0.981807                       # Average percentage of cache occupancy
system.l2.tags.occ_percent::total            0.989654                       # Average percentage of cache occupancy
system.l2.tags.occ_task_id_blocks::1024          4096                       # Occupied blocks per task id
system.l2.tags.age_task_id_blocks_1024::0            2                       # Occupied blocks per task id
system.l2.tags.age_task_id_blocks_1024::1           17                       # Occupied blocks per task id
system.l2.tags.age_task_id_blocks_1024::2          234                       # Occupied blocks per task id
system.l2.tags.age_task_id_blocks_1024::3         2300                       # Occupied blocks per task id
system.l2.tags.age_task_id_blocks_1024::4         1543                       # Occupied blocks per task id
system.l2.tags.occ_task_id_percent::1024            1                       # Percentage of cache occupancy per task id
system.l2.tags.tag_accesses                   1108259                       # Number of tag accesses
system.l2.tags.data_accesses                  1108259                       # Number of data accesses
system.cpu_voltage_domain.voltage                   1                       # Voltage in Volts
system.mem_ctrls.pwrStateResidencyTicks::UNDEFINED 119279904000                       # Cumulative time (in ticks) in various power states
system.mem_ctrls.bytes_read::.cpu.inst          32768                       # Number of bytes read from this memory
system.mem_ctrls.bytes_read::.cpu.data        3123712                       # Number of bytes read from this memory
system.mem_ctrls.bytes_read::total            3156480                       # Number of bytes read from this memory
system.mem_ctrls.bytes_inst_read::.cpu.inst        32768                       # Number of instructions bytes read from this memory
system.mem_ctrls.bytes_inst_read::total         32768                       # Number of instructions bytes read from this memory
system.mem_ctrls.bytes_written::.writebacks      2809088                       # Number of bytes written to this memory
system.mem_ctrls.bytes_written::total         2809088                       # Number of bytes written to this memory
system.mem_ctrls.num_reads::.cpu.inst             512                       # Number of read requests responded to by this memory
system.mem_ctrls.num_reads::.cpu.data           48808                       # Number of read requests responded to by this memory
system.mem_ctrls.num_reads::total               49320                       # Number of read requests responded to by this memory
system.mem_ctrls.num_writes::.writebacks        43892                       # Number of write requests responded to by this memory
system.mem_ctrls.num_writes::total              43892                       # Number of write requests responded to by this memory
system.mem_ctrls.bw_read::.cpu.inst            274715                       # Total read bandwidth from this memory (bytes/s)
system.mem_ctrls.bw_read::.cpu.data          26188083                       # Total read bandwidth from this memory (bytes/s)
system.mem_ctrls.bw_read::total              26462798                       # Total read bandwidth from this memory (bytes/s)
system.mem_ctrls.bw_inst_read::.cpu.inst       274715                       # Instruction read bandwidth from this memory (bytes/s)
system.mem_ctrls.bw_inst_read::total           274715                       # Instruction read bandwidth from this memory (bytes/s)
system.mem_ctrls.bw_write::.writebacks       23550388                       # Write bandwidth from this memory (bytes/s)
system.mem_ctrls.bw_write::total             23550388                       # Write bandwidth from this memory (bytes/s)
system.mem_ctrls.bw_total::.writebacks       23550388                       # Total bandwidth to/from this memory (bytes/s)
system.mem_ctrls.bw_total::.cpu.inst           274715                       # Total bandwidth to/from this memory (bytes/s)
system.mem_ctrls.bw_total::.cpu.data         26188083                       # Total bandwidth to/from this memory (bytes/s)
system.mem_ctrls.bw_total::total             50013186                       # Total bandwidth to/from this memory (bytes/s)
system.mem_ctrls.avgPriority_.writebacks::samples     43892.00                       # Average QoS priority value for accepted requests
system.mem_ctrls.avgPriority_.cpu.inst::samples       512.00                       # Average QoS priority value for accepted requests
system.mem_ctrls.avgPriority_.cpu.data::samples     48796.00                       # Average QoS priority value for accepted requests
system.mem_ctrls.priorityMinLatency      0.000000018750                       # per QoS priority minimum request to response latency (s)
system.mem_ctrls.priorityMaxLatency      0.002663498500                       # per QoS priority maximum request to response latency (s)
system.mem_ctrls.numReadWriteTurnArounds         2452                       # Number of turnarounds from READ to WRITE
system.mem_ctrls.numWriteReadTurnArounds         2452                       # Number of turnarounds from WRITE to READ
system.mem_ctrls.numStayReadState              172501                       # Number of times bus staying in READ state
system.mem_ctrls.numStayWriteState              41462                       # Number of times bus staying in WRITE state
system.mem_ctrls.readReqs                       49320                       # Number of read requests accepted
system.mem_ctrls.writeReqs                      43892                       # Number of write requests accepted
system.mem_ctrls.readBursts                     49320                       # Number of DRAM read bursts, including those serviced by the write queue
system.mem_ctrls.writeBursts                    43892                       # Number of DRAM write bursts, including those merged in the write queue
system.mem_ctrls.servicedByWrQ                     12                       # Number of DRAM read bursts serviced by the write queue
system.mem_ctrls.mergedWrBursts                     0                       # Number of DRAM write bursts merged with an existing one
system.mem_ctrls.neitherReadNorWriteReqs            0                       # Number of requests that are neither read nor write
system.mem_ctrls.perBankRdBursts::0              3019                       # Per bank write bursts
system.mem_ctrls.perBankRdBursts::1              2903                       # Per bank write bursts
system.mem_ctrls.perBankRdBursts::2              2875                       # Per bank write bursts
system.mem_ctrls.perBankRdBursts::3              3472                       # Per bank write bursts
system.mem_ctrls.perBankRdBursts::4              3660                       # Per bank write bursts
system.mem_ctrls.perBankRdBursts::5              2990                       # Per bank write bursts
system.mem_ctrls.perBankRdBursts::6              3005                       # Per bank write bursts
system.mem_ctrls.perBankRdBursts::7              3010                       # Per bank write bursts
system.mem_ctrls.perBankRdBursts::8              3009                       # Per bank write bursts
system.mem_ctrls.perBankRdBursts::9              3024                       # Per bank write bursts
system.mem_ctrls.perBankRdBursts::10             3015                       # Per bank write bursts
system.mem_ctrls.perBankRdBursts::11             3075                       # Per bank write bursts
system.mem_ctrls.perBankRdBursts::12             3085                       # Per bank write bursts
system.mem_ctrls.perBankRdBursts::13             3033                       # Per bank write bursts
system.mem_ctrls.perBankRdBursts::14             3097                       # Per bank write bursts
system.mem_ctrls.perBankRdBursts::15             3036                       # Per bank write bursts
system.mem_ctrls.perBankWrBursts::0              2679                       # Per bank write bursts
system.mem_ctrls.perBankWrBursts::1              2613                       # Per bank write bursts
system.mem_ctrls.perBankWrBursts::2              2594                       # Per bank write bursts
system.mem_ctrls.perBankWrBursts::3              2823                       # Per bank write bursts
system.mem_ctrls.perBankWrBursts::4              3020                       # Per bank write bursts
system.mem_ctrls.perBankWrBursts::5              2729                       # Per bank write bursts
system.mem_ctrls.perBankWrBursts::6              2750                       # Per bank write bursts
system.mem_ctrls.perBankWrBursts::7              2727                       # Per bank write bursts
system.mem_ctrls.perBankWrBursts::8              2731                       # Per bank write bursts
system.mem_ctrls.perBankWrBursts::9              2712                       # Per bank write bursts
system.mem_ctrls.perBankWrBursts::10             2715                       # Per bank write bursts
system.mem_ctrls.perBankWrBursts::11             2755                       # Per bank write bursts
system.mem_ctrls.perBankWrBursts::12             2767                       # Per bank write bursts
system.mem_ctrls.perBankWrBursts::13             2743                       # Per bank write bursts
system.mem_ctrls.perBankWrBursts::14             2759                       # Per bank write bursts
system.mem_ctrls.perBankWrBursts::15             2747                       # Per bank write bursts
system.mem_ctrls.avgRdQLen                       1.06                       # Average read queue length when enqueuing
system.mem_ctrls.avgWrQLen                      24.33                       # Average write queue length when enqueuing
system.mem_ctrls.totQLat                    773811000                       # Total ticks spent queuing
system.mem_ctrls.totBusLat                  246540000                       # Total ticks spent in databus transfers
system.mem_ctrls.totMemAccLat              1698336000                       # Total ticks spent from burst creation until serviced by the DRAM
system.mem_ctrls.avgQLat                     15693.42                       # Average queueing delay per DRAM burst
system.mem_ctrls.avgBusLat                    5000.00                       # Average bus latency per DRAM burst
system.mem_ctrls.avgMemAccLat                34443.42                       # Average memory access latency per DRAM burst
system.mem_ctrls.numRdRetry                         0                       # Number of times read queue was full causing retry
system.mem_ctrls.numWrRetry                         0                       # Number of times write queue was full causing retry
system.mem_ctrls.readRowHits                    18047                       # Number of row buffer hits during reads
system.mem_ctrls.writeRowHits                   30425                       # Number of row buffer hits during writes
system.mem_ctrls.readRowHitRate                 36.60                       # Row buffer hit rate for reads
system.mem_ctrls.writeRowHitRate                69.32                       # Row buffer hit rate for writes
system.mem_ctrls.readPktSize::0                     0                       # Read request sizes (log2)
system.mem_ctrls.readPktSize::1                     0                       # Read request sizes (log2)
system.mem_ctrls.readPktSize::2                     0                       # Read request sizes (log2)
system.mem_ctrls.readPktSize::3                     0                       # Read request sizes (log2)
system.mem_ctrls.readPktSize::4                     0                       # Read request sizes (log2)
system.mem_ctrls.readPktSize::5                     0                       # Read request sizes (log2)
system.mem_ctrls.readPktSize::6                 49320                       # Read request sizes (log2)
system.mem_ctrls.writePktSize::0                    0                       # Write request sizes (log2)
system.mem_ctrls.writePktSize::1                    0                       # Write request sizes (log2)
system.mem_ctrls.writePktSize::2                    0                       # Write request sizes (log2)
system.mem_ctrls.writePktSize::3                    0                       # Write request sizes (log2)
system.mem_ctrls.writePktSize::4                    0                       # Write request sizes (log2)
system.mem_ctrls.writePktSize::5                    0                       # Write request sizes (log2)
system.mem_ctrls.writePktSize::6                43892                       # Write request sizes (log2)
system.mem_ctrls.rdQLenPdf::0                   46939                       # What read queue length does an incoming req see
system.mem_ctrls.rdQLenPdf::1                    2363                       # What read queue length does an incoming req see
system.mem_ctrls.rdQLenPdf::2                       6                       # What read queue length does an incoming req see
system.mem_ctrls.rdQLenPdf::3                       0                       # What read queue length does an incoming req see
system.mem_ctrls.rdQLenPdf::4                       0                       # What read queue length does an incoming req see
system.mem_ctrls.rdQLenPdf::5                       0                       # What read queue length does an incoming req see
system.mem_ctrls.rdQLenPdf::6                       0                       # What read queue length does an incoming req see
system.mem_ctrls.rdQLenPdf::7                       0                       # What read queue length does an incoming req see
system.mem_ctrls.rdQLenPdf::8                       0                       # What read queue length does an incoming req see
system.mem_ctrls.rdQLenPdf::9                       0                       # What read queue length does an incoming req see
system.mem_ctrls.rdQLenPdf::10                      0                       # What read queue length does an incoming req see
system.mem_ctrls.rdQLenPdf::11                      0                       # What read queue length does an incoming req see
system.mem_ctrls.rdQLenPdf::12                      0                       # What read queue length does an incoming req see
system.mem_ctrls.rdQLenPdf::13                      0                       # What read queue length does an incoming req see
system.mem_ctrls.rdQLenPdf::14                      0                       # What read queue length does an incoming req see
system.mem_ctrls.rdQLenPdf::15                      0                       # What read queue length does an incoming req see
system.mem_ctrls.rdQLenPdf::16                      0                       # What read queue length does an incoming req see
system.mem_ctrls.rdQLenPdf::17                      0                       # What read queue length does an incoming req see
system.mem_ctrls.rdQLenPdf::18                      0                       # What read queue length does an incoming req see
system.mem_ctrls.rdQLenPdf::19                      0                       # What read queue length does an incoming req see
system.mem_ctrls.rdQLenPdf::20                      0                       # What read queue length does an incoming req see
system.mem_ctrls.rdQLenPdf::21                      0                       # What read queue length does an incoming req see
system.mem_ctrls.rdQLenPdf::22                      0                       # What read queue length does an incoming req see
system.mem_ctrls.rdQLenPdf::23                      0                       # What read queue length does an incoming req see
system.mem_ctrls.rdQLenPdf::24                      0                       # What read queue length does an incoming req see
system.mem_ctrls.rdQLenPdf::25                      0                       # What read queue length does an incoming req see
system.mem_ctrls.rdQLenPdf::26                      0                       # What read queue length does an incoming req see
system.mem_ctrls.rdQLenPdf::27                      0                       # What read queue length does an incoming req see
system.mem_ctrls.rdQLenPdf::28                      0                       # What read queue length does an incoming req see
system.mem_ctrls.rdQLenPdf::29                      0                       # What read queue length does an incoming req see
system.mem_ctrls.rdQLenPdf::30                      0                       # What read queue length does an incoming req see
system.mem_ctrls.rdQLenPdf::31                      0                       # What read queue length does an incoming req see
system.mem_ctrls.wrQLenPdf::0                       1                       # What write queue length does an incoming req see
system.mem_ctrls.wrQLenPdf::1                       1                       # What write queue length does an incoming req see
system.mem_ctrls.wrQLenPdf::2                       1                       # What write queue length does an incoming req see
system.mem_ctrls.wrQLenPdf::3                       1                       # What write queue length does an incoming req see
system.mem_ctrls.wrQLenPdf::4                       1                       # What write queue length does an incoming req see
system.mem_ctrls.wrQLenPdf::5                       1                       # What write queue length does an incoming req see
system.mem_ctrls.wrQLenPdf::6                       1                       # What write queue length does an incoming req see
system.mem_ctrls.wrQLenPdf::7                       1                       # What write queue length does an incoming req see
system.mem_ctrls.wrQLenPdf::8                       1                       # What write queue length does an incoming req see
system.mem_ctrls.wrQLenPdf::9                       1                       # What write queue length does an incoming req see
system.mem_ctrls.wrQLenPdf::10                      1                       # What write queue length does an incoming req see
system.mem_ctrls.wrQLenPdf::11                      1                       # What write queue length does an incoming req see
system.mem_ctrls.wrQLenPdf::12                      1                       # What write queue length does an incoming req see
system.mem_ctrls.wrQLenPdf::13                      1                       # What write queue length does an incoming req see
system.mem_ctrls.wrQLenPdf::14                      1                       # What write queue length does an incoming req see
system.mem_ctrls.wrQLenPdf::15                   2199                       # What write queue length does an incoming req see
system.mem_ctrls.wrQLenPdf::16                   2201                       # What write queue length does an incoming req see
system.mem_ctrls.wrQLenPdf::17                   2439                       # What write queue length does an incoming req see
system.mem_ctrls.wrQLenPdf::18                   2455                       # What write queue length does an incoming req see
system.mem_ctrls.wrQLenPdf::19                   2459                       # What write queue length does an incoming req see
system.mem_ctrls.wrQLenPdf::20                   2462                       # What write queue length does an incoming req see
system.mem_ctrls.wrQLenPdf::21                   2462                       # What write queue length does an incoming req see
system.mem_ctrls.wrQLenPdf::22                   2471                       # What write queue length does an incoming req see
system.mem_ctrls.wrQLenPdf::23                   2491                       # What write queue length does an incoming req see
system.mem_ctrls.wrQLenPdf::24                   2470                       # What write queue length does an incoming req see
system.mem_ctrls.wrQLenPdf::25                   2483                       # What write queue length does an incoming req see
system.mem_ctrls.wrQLenPdf::26                   2467                       # What write queue length does an incoming req see
system.mem_ctrls.wrQLenPdf::27                   2487                       # What write queue length does an incoming req see
system.mem_ctrls.wrQLenPdf::28                   2500                       # What write queue length does an incoming req see
system.mem_ctrls.wrQLenPdf::29                   2472                       # What write queue length does an incoming req see
system.mem_ctrls.wrQLenPdf::30                   2453                       # What write queue length does an incoming req see
system.mem_ctrls.wrQLenPdf::31                   2452                       # What write queue length does an incoming req see
system.mem_ctrls.wrQLenPdf::32                   2452                       # What write queue length does an incoming req see
system.mem_ctrls.wrQLenPdf::33                      2                       # What write queue length does an incoming req see
system.mem_ctrls.wrQLenPdf::34                      0                       # What write queue length does an incoming req see
system.mem_ctrls.wrQLenPdf::35                      0                       # What write queue length does an incoming req see
system.mem_ctrls.wrQLenPdf::36                      0                       # What write queue length does an incoming req see
system.mem_ctrls.wrQLenPdf::37                      0                       # What write queue length does an incoming req see
system.mem_ctrls.wrQLenPdf::38                      0                       # What write queue length does an incoming req see
system.mem_ctrls.wrQLenPdf::39                      0                       # What write queue length does an incoming req see
system.mem_ctrls.wrQLenPdf::40                      0                       # What write queue length does an incoming req see
system.mem_ctrls.wrQLenPdf::41                      0                       # What write queue length does an incoming req see
system.mem_ctrls.wrQLenPdf::42                      0                       # What write queue length does an incoming req see
system.mem_ctrls.wrQLenPdf::43                      0                       # What write queue length does an incoming req see
system.mem_ctrls.wrQLenPdf::44                      0                       # What write queue length does an incoming req see
system.mem_ctrls.wrQLenPdf::45                      0                       # What write queue length does an incoming req see
system.mem_ctrls.wrQLenPdf::46                      0                       # What write queue length does an incoming req see
system.mem_ctrls.wrQLenPdf::47                      0                       # What write queue length does an incoming req see
system.mem_ctrls.wrQLenPdf::48                      0                       # What write queue length does an incoming req see
system.mem_ctrls.wrQLenPdf::49                      0                       # What write queue length does an incoming req see
system.mem_ctrls.wrQLenPdf::50                      0                       # What write queue length does an incoming req see
system.mem_ctrls.wrQLenPdf::51                      0                       # What write queue length does an incoming req see
system.mem_ctrls.wrQLenPdf::52                      0                       # What write queue length does an incoming req see
system.mem_ctrls.wrQLenPdf::53                      0                       # What write queue length does an incoming req see
system.mem_ctrls.wrQLenPdf::54                      0                       # What write queue length does an incoming req see
system.mem_ctrls.wrQLenPdf::55                      0                       # What write queue length does an incoming req see
system.mem_ctrls.wrQLenPdf::56                      0                       # What write queue length does an incoming req see
system.mem_ctrls.wrQLenPdf::57                      0                       # What write queue length does an incoming req see
system.mem_ctrls.wrQLenPdf::58                      0                       # What write queue length does an incoming req see
system.mem_ctrls.wrQLenPdf::59                      0                       # What write queue length does an incoming req see
system.mem_ctrls.wrQLenPdf::60                      0                       # What write queue length does an incoming req see
system.mem_ctrls.wrQLenPdf::61                      0                       # What write queue length does an incoming req see
system.mem_ctrls.wrQLenPdf::62                      0                       # What write queue length does an incoming req see
system.mem_ctrls.wrQLenPdf::63                      0                       # What write queue length does an incoming req see
system.mem_ctrls.bytesPerActivate::samples        44699                       # Bytes accessed per row activation
system.mem_ctrls.bytesPerActivate::mean    133.402179                       # Bytes accessed per row activation
system.mem_ctrls.bytesPerActivate::gmean    99.213729                       # Bytes accessed per row activation
system.mem_ctrls.bytesPerActivate::stdev   154.880342                       # Bytes accessed per row activation
system.mem_ctrls.bytesPerActivate::0-127        26875     60.12%     60.12% # Bytes accessed per row activation
system.mem_ctrls.bytesPerActivate::128-255        13031     29.15%     89.28% # Bytes accessed per row activation
system.mem_ctrls.bytesPerActivate::256-383         2337      5.23%     94.51% # Bytes accessed per row activation
system.mem_ctrls.bytesPerActivate::384-511          580      1.30%     95.80% # Bytes accessed per row activation
system.mem_ctrls.bytesPerActivate::512-639          446      1.00%     96.80% # Bytes accessed per row activation
system.mem_ctrls.bytesPerActivate::640-767          377      0.84%     97.64% # Bytes accessed per row activation
system.mem_ctrls.bytesPerActivate::768-895          391      0.87%     98.52% # Bytes accessed per row activation
system.mem_ctrls.bytesPerActivate::896-1023          307      0.69%     99.21% # Bytes accessed per row activation
system.mem_ctrls.bytesPerActivate::1024-1151          355      0.79%    100.00% # Bytes accessed per row activation
system.mem_ctrls.bytesPerActivate::total        44699                       # Bytes accessed per row activation
system.mem_ctrls.rdPerTurnAround::samples         2452                       # Reads before turning the bus around for writes
system.mem_ctrls.rdPerTurnAround::mean      20.103997                       # Reads before turning the bus around for writes
system.mem_ctrls.rdPerTurnAround::gmean     18.370134                       # Reads before turning the bus around for writes
system.mem_ctrls.rdPerTurnAround::stdev     59.440724                       # Reads before turning the bus around for writes
system.mem_ctrls.rdPerTurnAround::0-127          2447     99.80%     99.80% # Reads before turning the bus around for writes
system.mem_ctrls.rdPerTurnAround::128-255            1      0.04%     99.84% # Reads before turning the bus around for writes
[...]
system.cpu.icache.ReadReq_avg_miss_latency::total       100375                       # average ReadReq miss latency
system.cpu.icache.ReadReq_mshr_misses::.cpu.inst          528                       # number of ReadReq MSHR misses
system.cpu.icache.ReadReq_mshr_misses::total          528                       # number of ReadReq MSHR misses
system.cpu.icache.ReadReq_mshr_miss_latency::.cpu.inst     51942000                       # number of ReadReq MSHR miss cycles
system.cpu.icache.ReadReq_mshr_miss_latency::total     51942000                       # number of ReadReq MSHR miss cycles
system.cpu.icache.ReadReq_mshr_miss_rate::.cpu.inst     0.000018                       # mshr miss rate for ReadReq accesses
system.cpu.icache.ReadReq_mshr_miss_rate::total     0.000018                       # mshr miss rate for ReadReq accesses
system.cpu.icache.ReadReq_avg_mshr_miss_latency::.cpu.inst        98375                       # average ReadReq mshr miss latency
system.cpu.icache.ReadReq_avg_mshr_miss_latency::total        98375                       # average ReadReq mshr miss latency
system.cpu.icache.tags.pwrStateResidencyTicks::UNDEFINED 119279904000                       # Cumulative time (in ticks) in various power states
system.cpu.icache.tags.tagsinuse           495.547761                       # Cycle average of tags in use
system.cpu.icache.tags.total_refs            28761821                       # Total number of references to valid blocks.
system.cpu.icache.tags.sampled_refs               528                       # Sample count of references to valid blocks.
system.cpu.icache.tags.avg_refs          54473.145833                       # Average number of references to valid blocks.
system.cpu.icache.tags.warmup_cycle            108000                       # Cycle when the warmup percentage was hit.
system.cpu.icache.tags.occ_blocks::.cpu.inst   495.547761                       # Average occupied blocks per requestor
system.cpu.icache.tags.occ_percent::.cpu.inst     0.483933                       # Average percentage of cache occupancy
system.cpu.icache.tags.occ_percent::total     0.483933                       # Average percentage of cache occupancy
system.cpu.icache.tags.occ_task_id_blocks::1024          496                       # Occupied blocks per task id
system.cpu.icache.tags.age_task_id_blocks_1024::4          496                       # Occupied blocks per task id
system.cpu.icache.tags.occ_task_id_percent::1024     0.484375                       # Percentage of cache occupancy per task id
system.cpu.icache.tags.tag_accesses          57524170                       # Number of tag accesses
system.cpu.icache.tags.data_accesses         57524170                       # Number of data accesses
system.cpu.dtb.walker.pwrStateResidencyTicks::UNDEFINED 119279904000                       # Cumulative time (in ticks) in various power states
system.cpu.dtb.stage2_mmu.stage2_tlb.walker.pwrStateResidencyTicks::UNDEFINED 119279904000                       # Cumulative time (in ticks) in various power states
system.cpu.dcache.pwrStateResidencyTicks::UNDEFINED 119279904000                       # Cumulative time (in ticks) in various power states
system.cpu.dcache.demand_hits::.cpu.data     35439780                       # number of demand (read+write) hits
system.cpu.dcache.demand_hits::total         35439780                       # number of demand (read+write) hits
system.cpu.dcache.overall_hits::.cpu.data     35443022                       # number of overall hits
system.cpu.dcache.overall_hits::total        35443022                       # number of overall hits
system.cpu.dcache.demand_misses::.cpu.data       297575                       # number of demand (read+write) misses
system.cpu.dcache.demand_misses::total         297575                       # number of demand (read+write) misses
system.cpu.dcache.overall_misses::.cpu.data       297694                       # number of overall misses
system.cpu.dcache.overall_misses::total        297694                       # number of overall misses
system.cpu.dcache.demand_miss_latency::.cpu.data  12819099000                       # number of demand (read+write) miss cycles
system.cpu.dcache.demand_miss_latency::total  12819099000                       # number of demand (read+write) miss cycles
system.cpu.dcache.overall_miss_latency::.cpu.data  12819099000                       # number of overall miss cycles
system.cpu.dcache.overall_miss_latency::total  12819099000                       # number of overall miss cycles
system.cpu.dcache.demand_accesses::.cpu.data     35737355                       # number of demand (read+write) accesses
system.cpu.dcache.demand_accesses::total     35737355                       # number of demand (read+write) accesses
system.cpu.dcache.overall_accesses::.cpu.data     35740716                       # number of overall (read+write) accesses
system.cpu.dcache.overall_accesses::total     35740716                       # number of overall (read+write) accesses
system.cpu.dcache.demand_miss_rate::.cpu.data     0.008327                       # miss rate for demand accesses
system.cpu.dcache.demand_miss_rate::total     0.008327                       # miss rate for demand accesses
system.cpu.dcache.overall_miss_rate::.cpu.data     0.008329                       # miss rate for overall accesses
system.cpu.dcache.overall_miss_rate::total     0.008329                       # miss rate for overall accesses
system.cpu.dcache.demand_avg_miss_latency::.cpu.data 43078.548265                       # average overall miss latency
system.cpu.dcache.demand_avg_miss_latency::total 43078.548265                       # average overall miss latency
system.cpu.dcache.overall_avg_miss_latency::.cpu.data 43061.328075                       # average overall miss latency
system.cpu.dcache.overall_avg_miss_latency::total 43061.328075                       # average overall miss latency
system.cpu.dcache.blocked_cycles::no_mshrs            0                       # number of cycles access was blocked
system.cpu.dcache.blocked_cycles::no_targets            0                       # number of cycles access was blocked
system.cpu.dcache.blocked::no_mshrs                 0                       # number of cycles access was blocked
system.cpu.dcache.blocked::no_targets               0                       # number of cycles access was blocked
system.cpu.dcache.avg_blocked_cycles::no_mshrs          nan                       # average number of cycles each access was blocked
system.cpu.dcache.avg_blocked_cycles::no_targets          nan                       # average number of cycles each access was blocked
system.cpu.dcache.writebacks::.writebacks        70311                       # number of writebacks
system.cpu.dcache.writebacks::total             70311                       # number of writebacks
system.cpu.dcache.demand_mshr_hits::.cpu.data        31569                       # number of demand (read+write) MSHR hits
system.cpu.dcache.demand_mshr_hits::total        31569                       # number of demand (read+write) MSHR hits
system.cpu.dcache.overall_mshr_hits::.cpu.data        31569                       # number of overall MSHR hits
system.cpu.dcache.overall_mshr_hits::total        31569                       # number of overall MSHR hits
system.cpu.dcache.demand_mshr_misses::.cpu.data       266006                       # number of demand (read+write) MSHR misses
system.cpu.dcache.demand_mshr_misses::total       266006                       # number of demand (read+write) MSHR misses
system.cpu.dcache.overall_mshr_misses::.cpu.data       266120                       # number of overall MSHR misses
system.cpu.dcache.overall_mshr_misses::total       266120                       # number of overall MSHR misses
system.cpu.dcache.demand_mshr_miss_latency::.cpu.data  10539907000                       # number of demand (read+write) MSHR miss cycles
system.cpu.dcache.demand_mshr_miss_latency::total  10539907000                       # number of demand (read+write) MSHR miss cycles
system.cpu.dcache.overall_mshr_miss_latency::.cpu.data  10544560000                       # number of overall MSHR miss cycles
system.cpu.dcache.overall_mshr_miss_latency::total  10544560000                       # number of overall MSHR miss cycles
system.cpu.dcache.demand_mshr_miss_rate::.cpu.data     0.007443                       # mshr miss rate for demand accesses
system.cpu.dcache.demand_mshr_miss_rate::total     0.007443                       # mshr miss rate for demand accesses
system.cpu.dcache.overall_mshr_miss_rate::.cpu.data     0.007446                       # mshr miss rate for overall accesses
system.cpu.dcache.overall_mshr_miss_rate::total     0.007446                       # mshr miss rate for overall accesses
system.cpu.dcache.demand_avg_mshr_miss_latency::.cpu.data 39622.816779                       # average overall mshr miss latency
system.cpu.dcache.demand_avg_mshr_miss_latency::total 39622.816779                       # average overall mshr miss latency
system.cpu.dcache.overall_avg_mshr_miss_latency::.cpu.data 39623.327822                       # average overall mshr miss latency
system.cpu.dcache.overall_avg_mshr_miss_latency::total 39623.327822                       # average overall mshr miss latency
system.cpu.dcache.replacements                 265864                       # number of replacements
system.cpu.dcache.ReadReq_hits::.cpu.data     21250720                       # number of ReadReq hits
system.cpu.dcache.ReadReq_hits::total        21250720                       # number of ReadReq hits
system.cpu.dcache.ReadReq_misses::.cpu.data       231884                       # number of ReadReq misses
system.cpu.dcache.ReadReq_misses::total        231884                       # number of ReadReq misses
system.cpu.dcache.ReadReq_miss_latency::.cpu.data   7004544000                       # number of ReadReq miss cycles
system.cpu.dcache.ReadReq_miss_latency::total   7004544000                       # number of ReadReq miss cycles
system.cpu.dcache.ReadReq_accesses::.cpu.data     21482604                       # number of ReadReq accesses(hits+misses)
system.cpu.dcache.ReadReq_accesses::total     21482604                       # number of ReadReq accesses(hits+misses)
system.cpu.dcache.ReadReq_miss_rate::.cpu.data     0.010794                       # miss rate for ReadReq accesses
system.cpu.dcache.ReadReq_miss_rate::total     0.010794                       # miss rate for ReadReq accesses
system.cpu.dcache.ReadReq_avg_miss_latency::.cpu.data 30207.103552                       # average ReadReq miss latency
system.cpu.dcache.ReadReq_avg_miss_latency::total 30207.103552                       # average ReadReq miss latency
system.cpu.dcache.ReadReq_mshr_hits::.cpu.data        10855                       # number of ReadReq MSHR hits
system.cpu.dcache.ReadReq_mshr_hits::total        10855                       # number of ReadReq MSHR hits
system.cpu.dcache.ReadReq_mshr_misses::.cpu.data       221029                       # number of ReadReq MSHR misses
system.cpu.dcache.ReadReq_mshr_misses::total       221029                       # number of ReadReq MSHR misses
system.cpu.dcache.ReadReq_mshr_miss_latency::.cpu.data   6198905000                       # number of ReadReq MSHR miss cycles
system.cpu.dcache.ReadReq_mshr_miss_latency::total   6198905000                       # number of ReadReq MSHR miss cycles
system.cpu.dcache.ReadReq_mshr_miss_rate::.cpu.data     0.010289                       # mshr miss rate for ReadReq accesses
system.cpu.dcache.ReadReq_mshr_miss_rate::total     0.010289                       # mshr miss rate for ReadReq accesses
system.cpu.dcache.ReadReq_avg_mshr_miss_latency::.cpu.data 28045.663691                       # average ReadReq mshr miss latency
system.cpu.dcache.ReadReq_avg_mshr_miss_latency::total 28045.663691                       # average ReadReq mshr miss latency
system.cpu.dcache.WriteReq_hits::.cpu.data     14189060                       # number of WriteReq hits
system.cpu.dcache.WriteReq_hits::total       14189060                       # number of WriteReq hits
system.cpu.dcache.WriteReq_misses::.cpu.data        65691                       # number of WriteReq misses
system.cpu.dcache.WriteReq_misses::total        65691                       # number of WriteReq misses
system.cpu.dcache.WriteReq_miss_latency::.cpu.data   5814555000                       # number of WriteReq miss cycles
system.cpu.dcache.WriteReq_miss_latency::total   5814555000                       # number of WriteReq miss cycles
system.cpu.dcache.WriteReq_accesses::.cpu.data     14254751                       # number of WriteReq accesses(hits+misses)
system.cpu.dcache.WriteReq_accesses::total     14254751                       # number of WriteReq accesses(hits+misses)
system.cpu.dcache.WriteReq_miss_rate::.cpu.data     0.004608                       # miss rate for WriteReq accesses
system.cpu.dcache.WriteReq_miss_rate::total     0.004608                       # miss rate for WriteReq accesses
system.cpu.dcache.WriteReq_avg_miss_latency::.cpu.data 88513.723341                       # average WriteReq miss latency
system.cpu.dcache.WriteReq_avg_miss_latency::total 88513.723341                       # average WriteReq miss latency
system.cpu.dcache.WriteReq_mshr_hits::.cpu.data        20714                       # number of WriteReq MSHR hits
system.cpu.dcache.WriteReq_mshr_hits::total        20714                       # number of WriteReq MSHR hits
system.cpu.dcache.WriteReq_mshr_misses::.cpu.data        44977                       # number of WriteReq MSHR misses
system.cpu.dcache.WriteReq_mshr_misses::total        44977                       # number of WriteReq MSHR misses
system.cpu.dcache.WriteReq_mshr_miss_latency::.cpu.data   4341002000                       # number of WriteReq MSHR miss cycles
system.cpu.dcache.WriteReq_mshr_miss_latency::total   4341002000                       # number of WriteReq MSHR miss cycles
system.cpu.dcache.WriteReq_mshr_miss_rate::.cpu.data     0.003155                       # mshr miss rate for WriteReq accesses
system.cpu.dcache.WriteReq_mshr_miss_rate::total     0.003155                       # mshr miss rate for WriteReq accesses
system.cpu.dcache.WriteReq_avg_mshr_miss_latency::.cpu.data 96516.041532                       # average WriteReq mshr miss latency
system.cpu.dcache.WriteReq_avg_mshr_miss_latency::total 96516.041532                       # average WriteReq mshr miss latency
system.cpu.dcache.SoftPFReq_hits::.cpu.data         3242                       # number of SoftPFReq hits
system.cpu.dcache.SoftPFReq_hits::total          3242                       # number of SoftPFReq hits
system.cpu.dcache.SoftPFReq_misses::.cpu.data          119                       # number of SoftPFReq misses
system.cpu.dcache.SoftPFReq_misses::total          119                       # number of SoftPFReq misses
system.cpu.dcache.SoftPFReq_accesses::.cpu.data         3361                       # number of SoftPFReq accesses(hits+misses)
system.cpu.dcache.SoftPFReq_accesses::total         3361                       # number of SoftPFReq accesses(hits+misses)
system.cpu.dcache.SoftPFReq_miss_rate::.cpu.data     0.035406                       # miss rate for SoftPFReq accesses
system.cpu.dcache.SoftPFReq_miss_rate::total     0.035406                       # miss rate for SoftPFReq accesses
system.cpu.dcache.SoftPFReq_mshr_misses::.cpu.data          114                       # number of SoftPFReq MSHR misses
system.cpu.dcache.SoftPFReq_mshr_misses::total          114                       # number of SoftPFReq MSHR misses
system.cpu.dcache.SoftPFReq_mshr_miss_latency::.cpu.data      4653000                       # number of SoftPFReq MSHR miss cycles
system.cpu.dcache.SoftPFReq_mshr_miss_latency::total      4653000                       # number of SoftPFReq MSHR miss cycles
system.cpu.dcache.SoftPFReq_mshr_miss_rate::.cpu.data     0.033918                       # mshr miss rate for SoftPFReq accesses
system.cpu.dcache.SoftPFReq_mshr_miss_rate::total     0.033918                       # mshr miss rate for SoftPFReq accesses
system.cpu.dcache.SoftPFReq_avg_mshr_miss_latency::.cpu.data 40815.789474                       # average SoftPFReq mshr miss latency
system.cpu.dcache.SoftPFReq_avg_mshr_miss_latency::total 40815.789474                       # average SoftPFReq mshr miss latency
system.cpu.dcache.LoadLockedReq_hits::.cpu.data        89082                       # number of LoadLockedReq hits
system.cpu.dcache.LoadLockedReq_hits::total        89082                       # number of LoadLockedReq hits
system.cpu.dcache.LoadLockedReq_accesses::.cpu.data        89082                       # number of LoadLockedReq accesses(hits+misses)
system.cpu.dcache.LoadLockedReq_accesses::total        89082                       # number of LoadLockedReq accesses(hits+misses)
system.cpu.dcache.StoreCondReq_hits::.cpu.data        89082                       # number of StoreCondReq hits
system.cpu.dcache.StoreCondReq_hits::total        89082                       # number of StoreCondReq hits
system.cpu.dcache.StoreCondReq_accesses::.cpu.data        89082                       # number of StoreCondReq accesses(hits+misses)
system.cpu.dcache.StoreCondReq_accesses::total        89082                       # number of StoreCondReq accesses(hits+misses)
system.cpu.dcache.tags.pwrStateResidencyTicks::UNDEFINED 119279904000                       # Cumulative time (in ticks) in various power states
system.cpu.dcache.tags.tagsinuse           255.836738                       # Cycle average of tags in use
system.cpu.dcache.tags.total_refs            35887306                       # Total number of references to valid blocks.
system.cpu.dcache.tags.sampled_refs            266120                       # Sample count of references to valid blocks.
system.cpu.dcache.tags.avg_refs            134.853848                       # Average number of references to valid blocks.
system.cpu.dcache.tags.warmup_cycle            240000                       # Cycle when the warmup percentage was hit.
system.cpu.dcache.tags.occ_blocks::.cpu.data   255.836738                       # Average occupied blocks per requestor
system.cpu.dcache.tags.occ_percent::.cpu.data     0.999362                       # Average percentage of cache occupancy
system.cpu.dcache.tags.occ_percent::total     0.999362                       # Average percentage of cache occupancy
system.cpu.dcache.tags.occ_task_id_blocks::1024          256                       # Occupied blocks per task id
system.cpu.dcache.tags.age_task_id_blocks_1024::0            7                       # Occupied blocks per task id
system.cpu.dcache.tags.age_task_id_blocks_1024::1           40                       # Occupied blocks per task id
system.cpu.dcache.tags.age_task_id_blocks_1024::2          179                       # Occupied blocks per task id
system.cpu.dcache.tags.age_task_id_blocks_1024::3           16                       # Occupied blocks per task id
system.cpu.dcache.tags.age_task_id_blocks_1024::4           14                       # Occupied blocks per task id
system.cpu.dcache.tags.occ_task_id_percent::1024            1                       # Percentage of cache occupancy per task id
system.cpu.dcache.tags.tag_accesses          72103880                       # Number of tag accesses
system.cpu.dcache.tags.data_accesses         72103880                       # Number of data accesses
system.cpu.itb.walker.pwrStateResidencyTicks::UNDEFINED 119279904000                       # Cumulative time (in ticks) in various power states
system.cpu.itb.stage2_mmu.stage2_tlb.walker.pwrStateResidencyTicks::UNDEFINED 119279904000                       # Cumulative time (in ticks) in various power states

---------- End Simulation Statistics   ----------
