
---------- Begin Simulation Statistics ----------
final_tick                               118929970000                       # Number of ticks from beginning of simulation (restored from checkpoints and never reset)
host_inst_rate                                 161523                       # Simulator instruction rate (inst/s)
host_mem_usage                                 685296                       # Number of bytes of host memory used
host_op_rate                                   163304                       # Simulator op (including micro ops) rate (op/s)
host_seconds                                   619.11                       # Real time elapsed on the host
host_tick_rate                              192099321                       # Simulator tick rate (ticks/s)
sim_freq                                 1000000000000                       # Frequency of simulated ticks
sim_insts                                   100000000                       # Number of instructions simulated
sim_ops                                     101102729                       # Number of ops (including micro ops) simulated
sim_seconds                                  0.118930                       # Number of seconds simulated
sim_ticks                                118929970000                       # Number of ticks simulated
system.cpu.branchPred.BTBCorrect                    0                       # Number of correct BTB predictions (this stat may not work properly.
system.cpu.branchPred.BTBHitPct             84.213811                       # BTB Hit Percentage
system.cpu.branchPred.BTBHits                 4083798                       # Number of BTB hits
system.cpu.branchPred.BTBLookups              4849321                       # Number of BTB lookups
system.cpu.branchPred.RASInCorrect                 19                       # Number of incorrect RAS predictions.
system.cpu.branchPred.condIncorrect            352111                       # Number of conditional branches incorrect
system.cpu.branchPred.condPredicted           5095582                       # Number of conditional branches predicted
system.cpu.branchPred.indirectHits             102872                       # Number of indirect target hits.
system.cpu.branchPred.indirectLookups          676218                       # Number of indirect predictor lookups.
system.cpu.branchPred.indirectMisses           573346                       # Number of indirect misses.
system.cpu.branchPred.lookups                 6502277                       # Number of BP lookups
system.cpu.branchPred.usedRAS                  311996                       # Number of times the RAS was used to get a target.
system.cpu.branchPredindirectMispredicted        37623                       # Number of mispredicted indirect branches.
system.cpu.committedInsts                   100000000                       # Number of instructions committed
system.cpu.committedOps                     101102729                       # Number of ops (including micro ops) committed
system.cpu.cpi                               1.189300                       # CPI: cycles per instruction
system.cpu.discardedOps                        975639                       # Number of ops (including micro ops) which were discarded before commit
system.cpu.dtb.accesses                             0                       # DTB accesses
system.cpu.dtb.align_faults                         0                       # Number of TLB faults due to alignment restrictions
system.cpu.dtb.domain_faults                        0                       # Number of TLB faults due to domain restrictions
system.cpu.dtb.flush_entries                        0                       # Number of entries that have been flushed from TLB
system.cpu.dtb.flush_tlb                            0                       # Number of times complete TLB was flushed
system.cpu.dtb.flush_tlb_asid                       0                       # Number of times TLB was flushed by ASID
system.cpu.dtb.flush_tlb_mva                        0                       # Number of times TLB was flushed by MVA
system.cpu.dtb.flush_tlb_mva_asid                   0                       # Number of times TLB was flushed by MVA & ASID
system.cpu.dtb.hits                                 0                       # DTB hits
system.cpu.dtb.inst_accesses                        0                       # ITB inst accesses
system.cpu.dtb.inst_hits                            0                       # ITB inst hits
system.cpu.dtb.inst_misses                          0                       # ITB inst misses
system.cpu.dtb.misses                               0                       # DTB misses
system.cpu.dtb.perms_faults                         0                       # Number of TLB faults due to permissions restrictions
system.cpu.dtb.prefetch_faults                      0                       # Number of TLB faults due to prefetch
system.cpu.dtb.read_accesses                        0                       # DTB read accesses
system.cpu.dtb.read_hits                            0                       # DTB read hits
system.cpu.dtb.read_misses                          0                       # DTB read misses
system.cpu.dtb.stage2_mmu.stage2_tlb.accesses            0                       # DTB accesses
system.cpu.dtb.stage2_mmu.stage2_tlb.align_faults            0                       # Number of TLB faults due to alignment restrictions
system.cpu.dtb.stage2_mmu.stage2_tlb.domain_faults            0                       # Number of TLB faults due to domain restrictions
system.cpu.dtb.stage2_mmu.stage2_tlb.flush_entries            0                       # Number of entries that have been flushed from TLB
system.cpu.dtb.stage2_mmu.stage2_tlb.flush_tlb            0                       # Number of times complete TLB was flushed
system.cpu.dtb.stage2_mmu.stage2_tlb.flush_tlb_asid            0                       # Number of times TLB was flushed by ASID
system.cpu.dtb.stage2_mmu.stage2_tlb.flush_tlb_mva            0                       # Number of times TLB was flushed by MVA
system.cpu.dtb.stage2_mmu.stage2_tlb.flush_tlb_mva_asid            0                       # Number of times TLB was flushed by MVA & ASID
system.cpu.dtb.stage2_mmu.stage2_tlb.hits            0                       # DTB hits
system.cpu.dtb.stage2_mmu.stage2_tlb.inst_accesses            0                       # ITB inst accesses
system.cpu.dtb.stage2_mmu.stage2_tlb.inst_hits            0                       # ITB inst hits
system.cpu.dtb.stage2_mmu.stage2_tlb.inst_misses            0                       # ITB inst misses
system.cpu.dtb.stage2_mmu.stage2_tlb.misses            0                       # DTB misses
system.cpu.dtb.stage2_mmu.stage2_tlb.perms_faults            0                       # Number of TLB faults due to permissions restrictions
system.cpu.dtb.stage2_mmu.stage2_tlb.prefetch_faults            0                       # Number of TLB faults due to prefetch
system.cpu.dtb.stage2_mmu.stage2_tlb.read_accesses            0                       # DTB read accesses
system.cpu.dtb.stage2_mmu.stage2_tlb.read_hits            0                       # DTB read hits
system.cpu.dtb.stage2_mmu.stage2_tlb.read_misses            0                       # DTB read misses
system.cpu.dtb.stage2_mmu.stage2_tlb.walker.walkRequestOrigin_Requested::Data            0                       # Table walker requests started/completed, data/inst
system.cpu.dtb.stage2_mmu.stage2_tlb.walker.walkRequestOrigin_Requested::Inst            0                       # Table walker requests started/completed, data/inst
system.cpu.dtb.stage2_mmu.stage2_tlb.walker.walkRequestOrigin_Requested::total            0                       # Table walker requests started/completed, data/inst
system.cpu.dtb.stage2_mmu.stage2_tlb.walker.walkRequestOrigin_Completed::Data            0                       # Table walker requests started/completed, data/inst
system.cpu.dtb.stage2_mmu.stage2_tlb.walker.walkRequestOrigin_Completed::Inst            0                       # Table walker requests started/completed, data/inst
system.cpu.dtb.stage2_mmu.stage2_tlb.walker.walkRequestOrigin_Completed::total            0                       # Table walker requests started/completed, data/inst
system.cpu.dtb.stage2_mmu.stage2_tlb.walker.walkRequestOrigin::total            0                       # Table walker requests started/completed, data/inst
system.cpu.dtb.stage2_mmu.stage2_tlb.walker.walks            0                       # Table walker walks requested
system.cpu.dtb.stage2_mmu.stage2_tlb.write_accesses            0                       # DTB write accesses
system.cpu.dtb.stage2_mmu.stage2_tlb.write_hits            0                       # DTB write hits
system.cpu.dtb.stage2_mmu.stage2_tlb.write_misses            0                       # DTB write misses
system.cpu.dtb.walker.walkRequestOrigin_Requested::Data            0                       # Table walker requests started/completed, data/inst
system.cpu.dtb.walker.walkRequestOrigin_Requested::Inst            0                       # Table walker requests started/completed, data/inst
system.cpu.dtb.walker.walkRequestOrigin_Requested::total            0                       # Table walker requests started/completed, data/inst
system.cpu.dtb.walker.walkRequestOrigin_Completed::Data            0                       # Table walker requests started/completed, data/inst
system.cpu.dtb.walker.walkRequestOrigin_Completed::Inst            0                       # Table walker requests started/completed, data/inst
system.cpu.dtb.walker.walkRequestOrigin_Completed::total            0                       # Table walker requests started/completed, data/inst
system.cpu.dtb.walker.walkRequestOrigin::total            0                       # Table walker requests started/completed, data/inst
system.cpu.dtb.walker.walks                         0                       # Table walker walks requested
system.cpu.dtb.write_accesses                       0                       # DTB write accesses
system.cpu.dtb.write_hits                           0                       # DTB write hits
system.cpu.dtb.write_misses                         0                       # DTB write misses
system.cpu.fetch2.amo_instructions                  0                       # Number of memory atomic instructions successfully decoded
system.cpu.fetch2.fp_instructions                   0                       # Number of floating point instructions successfully decoded
system.cpu.fetch2.int_instructions           48884000                       # Number of integer instructions successfully decoded
system.cpu.fetch2.load_instructions          40578645                       # Number of memory load instructions successfully decoded
system.cpu.fetch2.store_instructions          6265698                       # Number of memory store instructions successfully decoded
system.cpu.fetch2.vec_instructions                  0                       # Number of SIMD instructions successfully decoded
system.cpu.idleCycles                         2943586                       # Total number of cycles that the object has spent stopped
system.cpu.ipc                               0.840831                       # IPC: instructions per cycle
system.cpu.itb.accesses                             0                       # DTB accesses
system.cpu.itb.align_faults                         0                       # Number of TLB faults due to alignment restrictions
system.cpu.itb.domain_faults                        0                       # Number of TLB faults due to domain restrictions
system.cpu.itb.flush_entries                        0                       # Number of entries that have been flushed from TLB
system.cpu.itb.flush_tlb                            0                       # Number of times complete TLB was flushed
system.cpu.itb.flush_tlb_asid                       0                       # Number of times TLB was flushed by ASID
system.cpu.itb.flush_tlb_mva                        0                       # Number of times TLB was flushed by MVA
system.cpu.itb.flush_tlb_mva_asid                   0                       # Number of times TLB was flushed by MVA & ASID
system.cpu.itb.hits                                 0                       # DTB hits
system.cpu.itb.inst_accesses                        0                       # ITB inst accesses
system.cpu.itb.inst_hits                            0                       # ITB inst hits
system.cpu.itb.inst_misses                          0                       # ITB inst misses
system.cpu.itb.misses                               0                       # DTB misses
system.cpu.itb.perms_faults                         0                       # Number of TLB faults due to permissions restrictions
system.cpu.itb.prefetch_faults                      0                       # Number of TLB faults due to prefetch
system.cpu.itb.read_accesses                        0                       # DTB read accesses
system.cpu.itb.read_hits                            0                       # DTB read hits
system.cpu.itb.read_misses                          0                       # DTB read misses
system.cpu.itb.stage2_mmu.stage2_tlb.accesses            0                       # DTB accesses
system.cpu.itb.stage2_mmu.stage2_tlb.align_faults            0                       # Number of TLB faults due to alignment restrictions
system.cpu.itb.stage2_mmu.stage2_tlb.domain_faults            0                       # Number of TLB faults due to domain restrictions
system.cpu.itb.stage2_mmu.stage2_tlb.flush_entries            0                       # Number of entries that have been flushed from TLB
system.cpu.itb.stage2_mmu.stage2_tlb.flush_tlb            0                       # Number of times complete TLB was flushed
system.cpu.itb.stage2_mmu.stage2_tlb.flush_tlb_asid            0                       # Number of times TLB was flushed by ASID
system.cpu.itb.stage2_mmu.stage2_tlb.flush_tlb_mva            0                       # Number of times TLB was flushed by MVA
system.cpu.itb.stage2_mmu.stage2_tlb.flush_tlb_mva_asid            0                       # Number of times TLB was flushed by MVA & ASID
system.cpu.itb.stage2_mmu.stage2_tlb.hits            0                       # DTB hits
system.cpu.itb.stage2_mmu.stage2_tlb.inst_accesses            0                       # ITB inst accesses
system.cpu.itb.stage2_mmu.stage2_tlb.inst_hits            0                       # ITB inst hits
system.cpu.itb.stage2_mmu.stage2_tlb.inst_misses            0                       # ITB inst misses
system.cpu.itb.stage2_mmu.stage2_tlb.misses            0                       # DTB misses
system.cpu.itb.stage2_mmu.stage2_tlb.perms_faults            0                       # Number of TLB faults due to permissions restrictions
system.cpu.itb.stage2_mmu.stage2_tlb.prefetch_faults            0                       # Number of TLB faults due to prefetch
system.cpu.itb.stage2_mmu.stage2_tlb.read_accesses            0                       # DTB read accesses
system.cpu.itb.stage2_mmu.stage2_tlb.read_hits            0                       # DTB read hits
system.cpu.itb.stage2_mmu.stage2_tlb.read_misses            0                       # DTB read misses
system.cpu.itb.stage2_mmu.stage2_tlb.walker.walkRequestOrigin_Requested::Data            0                       # Table walker requests started/completed, data/inst
system.cpu.itb.stage2_mmu.stage2_tlb.walker.walkRequestOrigin_Requested::Inst            0                       # Table walker requests started/completed, data/inst
system.cpu.itb.stage2_mmu.stage2_tlb.walker.walkRequestOrigin_Requested::total            0                       # Table walker requests started/completed, data/inst
system.cpu.itb.stage2_mmu.stage2_tlb.walker.walkRequestOrigin_Completed::Data            0                       # Table walker requests started/completed, data/inst
system.cpu.itb.stage2_mmu.stage2_tlb.walker.walkRequestOrigin_Completed::Inst            0                       # Table walker requests started/completed, data/inst
system.cpu.itb.stage2_mmu.stage2_tlb.walker.walkRequestOrigin_Completed::total            0                       # Table walker requests started/completed, data/inst
system.cpu.itb.stage2_mmu.stage2_tlb.walker.walkRequestOrigin::total            0                       # Table walker requests started/completed, data/inst
system.cpu.itb.stage2_mmu.stage2_tlb.walker.walks            0                       # Table walker walks requested
system.cpu.itb.stage2_mmu.stage2_tlb.write_accesses            0                       # DTB write accesses
system.cpu.itb.stage2_mmu.stage2_tlb.write_hits            0                       # DTB write hits
system.cpu.itb.stage2_mmu.stage2_tlb.write_misses            0                       # DTB write misses
system.cpu.itb.walker.walkRequestOrigin_Requested::Data            0                       # Table walker requests started/completed, data/inst
system.cpu.itb.walker.walkRequestOrigin_Requested::Inst            0                       # Table walker requests started/completed, data/inst
system.cpu.itb.walker.walkRequestOrigin_Requested::total            0                       # Table walker requests started/completed, data/inst
system.cpu.itb.walker.walkRequestOrigin_Completed::Data            0                       # Table walker requests started/completed, data/inst
system.cpu.itb.walker.walkRequestOrigin_Completed::Inst            0                       # Table walker requests started/completed, data/inst
system.cpu.itb.walker.walkRequestOrigin_Completed::total            0                       # Table walker requests started/completed, data/inst
system.cpu.itb.walker.walkRequestOrigin::total            0                       # Table walker requests started/completed, data/inst
system.cpu.itb.walker.walks                         0                       # Table walker walks requested
system.cpu.itb.write_accesses                       0                       # DTB write accesses
system.cpu.itb.write_hits                           0                       # DTB write hits
system.cpu.itb.write_misses                         0                       # DTB write misses
system.cpu.numCycles                        118929970                       # number of cpu cycles simulated
system.cpu.numFetchSuspends                         0                       # Number of times Execute suspended instruction fetching
system.cpu.numWorkItemsCompleted                    0                       # number of work items this cpu completed
system.cpu.numWorkItemsStarted                      0                       # number of work items this cpu started
system.cpu.op_class_0::No_OpClass                   0      0.00%      0.00% # Class of committed instruction
system.cpu.op_class_0::IntAlu                55115655     54.51%     54.51% # Class of committed instruction
system.cpu.op_class_0::IntMult                 167845      0.17%     54.68% # Class of committed instruction
system.cpu.op_class_0::IntDiv                       0      0.00%     54.68% # Class of committed instruction
system.cpu.op_class_0::FloatAdd                     0      0.00%     54.68% # Class of committed instruction
system.cpu.op_class_0::FloatCmp                     0      0.00%     54.68% # Class of committed instruction
system.cpu.op_class_0::FloatCvt                     0      0.00%     54.68% # Class of committed instruction
system.cpu.op_class_0::FloatMult                    0      0.00%     54.68% # Class of committed instruction
system.cpu.op_class_0::FloatMultAcc                 0      0.00%     54.68% # Class of committed instruction
system.cpu.op_class_0::FloatDiv                     0      0.00%     54.68% # Class of committed instruction
system.cpu.op_class_0::FloatMisc                    0      0.00%     54.68% # Class of committed instruction
system.cpu.op_class_0::FloatSqrt                    0      0.00%     54.68% # Class of committed instruction
system.cpu.op_class_0::SimdAdd                    380      0.00%     54.68% # Class of committed instruction
system.cpu.op_class_0::SimdAddAcc                   0      0.00%     54.68% # Class of committed instruction
system.cpu.op_class_0::SimdAlu                    470      0.00%     54.68% # Class of committed instruction
system.cpu.op_class_0::SimdCmp                    382      0.00%     54.68% # Class of committed instruction
system.cpu.op_class_0::SimdCvt                      0      0.00%     54.68% # Class of committed instruction
system.cpu.op_class_0::SimdMisc                    53      0.00%     54.68% # Class of committed instruction
system.cpu.op_class_0::SimdMult                     0      0.00%     54.68% # Class of committed instruction
system.cpu.op_class_0::SimdMultAcc                  0      0.00%     54.68% # Class of committed instruction
system.cpu.op_class_0::SimdShift                    0      0.00%     54.68% # Class of committed instruction
system.cpu.op_class_0::SimdShiftAcc                 0      0.00%     54.68% # Class of committed instruction
system.cpu.op_class_0::SimdDiv                      0      0.00%     54.68% # Class of committed instruction
system.cpu.op_class_0::SimdSqrt                     0      0.00%     54.68% # Class of committed instruction
system.cpu.op_class_0::SimdFloatAdd            267609      0.26%     54.95% # Class of committed instruction
system.cpu.op_class_0::SimdFloatAlu                 0      0.00%     54.95% # Class of committed instruction
system.cpu.op_class_0::SimdFloatCmp            259630      0.26%     55.20% # Class of committed instruction
system.cpu.op_class_0::SimdFloatCvt            161456      0.16%     55.36% # Class of committed instruction
system.cpu.op_class_0::SimdFloatDiv             54308      0.05%     55.42% # Class of committed instruction
system.cpu.op_class_0::SimdFloatMisc           483618      0.48%     55.90% # Class of committed instruction
system.cpu.op_class_0::SimdFloatMult            33524      0.03%     55.93% # Class of committed instruction
system.cpu.op_class_0::SimdFloatMultAcc         11115      0.01%     55.94% # Class of committed instruction
system.cpu.op_class_0::SimdFloatSqrt                0      0.00%     55.94% # Class of committed instruction
system.cpu.op_class_0::SimdReduceAdd                0      0.00%     55.94% # Class of committed instruction
system.cpu.op_class_0::SimdReduceAlu                0      0.00%     55.94% # Class of committed instruction
system.cpu.op_class_0::SimdReduceCmp                0      0.00%     55.94% # Class of committed instruction
system.cpu.op_class_0::SimdFloatReduceAdd            0      0.00%     55.94% # Class of committed instruction
system.cpu.op_class_0::SimdFloatReduceCmp            0      0.00%     55.94% # Class of committed instruction
system.cpu.op_class_0::SimdAes                      0      0.00%     55.94% # Class of committed instruction
system.cpu.op_class_0::SimdAesMix                   0      0.00%     55.94% # Class of committed instruction
system.cpu.op_class_0::SimdSha1Hash                 0      0.00%     55.94% # Class of committed instruction
system.cpu.op_class_0::SimdSha1Hash2                0      0.00%     55.94% # Class of committed instruction
system.cpu.op_class_0::SimdSha256Hash               0      0.00%     55.94% # Class of committed instruction
system.cpu.op_class_0::SimdSha256Hash2              0      0.00%     55.94% # Class of committed instruction
system.cpu.op_class_0::SimdShaSigma2                0      0.00%     55.94% # Class of committed instruction
system.cpu.op_class_0::SimdShaSigma3                0      0.00%     55.94% # Class of committed instruction
system.cpu.op_class_0::SimdPredAlu                  0      0.00%     55.94% # Class of committed instruction
system.cpu.op_class_0::MemRead               38167638     37.75%     93.69% # Class of committed instruction
system.cpu.op_class_0::MemWrite               6379046      6.31%    100.00% # Class of committed instruction
system.cpu.op_class_0::FloatMemRead                 0      0.00%    100.00% # Class of committed instruction
system.cpu.op_class_0::FloatMemWrite                0      0.00%    100.00% # Class of committed instruction
system.cpu.op_class_0::IprAccess                    0      0.00%    100.00% # Class of committed instruction
system.cpu.op_class_0::InstPrefetch                 0      0.00%    100.00% # Class of committed instruction
system.cpu.op_class_0::total                101102729                       # Class of committed instruction
system.cpu.tickCycles                       115986384                       # Number of cycles that the object actually ticked
system.cpu.workload.numSyscalls                    32                       # Number of system calls
system.membus.snoop_filter.hit_multi_requests            0                       # Number of requests hitting in the snoop filter with multiple (>1) holders of the requested data.
system.membus.snoop_filter.hit_multi_snoops            0                       # Number of snoops hitting in the snoop filter with multiple (>1) holders of the requested data.
system.membus.snoop_filter.hit_single_requests         2194                       # Number of requests hitting in the snoop filter with a single holder of the requested data.
system.membus.snoop_filter.hit_single_snoops            0                       # Number of snoops hitting in the snoop filter with a single holder of the requested data.
system.membus.snoop_filter.tot_requests          8695                       # Total number of requests made to the snoop filter.
system.membus.snoop_filter.tot_snoops               0                       # Total number of snoops made to the snoop filter.
system.tol2bus.snoop_filter.hit_multi_requests         1227                       # Number of requests hitting in the snoop filter with multiple (>1) holders of the requested data.
system.tol2bus.snoop_filter.hit_multi_snoops           21                       # Number of snoops hitting in the snoop filter with multiple (>1) holders of the requested data.
system.tol2bus.snoop_filter.hit_single_requests       100496                       # Number of requests hitting in the snoop filter with a single holder of the requested data.
system.tol2bus.snoop_filter.hit_single_snoops         1224                       # Number of snoops hitting in the snoop filter with a single holder of the requested data.
system.tol2bus.snoop_filter.tot_requests       202004                       # Total number of requests made to the snoop filter.
system.tol2bus.snoop_filter.tot_snoops           1245                       # Total number of snoops made to the snoop filter.
system.membus.pwrStateResidencyTicks::UNDEFINED 118929970000                       # Cumulative time (in ticks) in various power states
system.membus.trans_dist::ReadResp               2406                       # Transaction distribution
system.membus.trans_dist::WritebackDirty          730                       # Transaction distribution
system.membus.trans_dist::CleanEvict             1398                       # Transaction distribution
system.membus.trans_dist::ReadExReq              4161                       # Transaction distribution
system.membus.trans_dist::ReadExResp             4161                       # Transaction distribution
system.membus.trans_dist::ReadSharedReq          2406                       # Transaction distribution
system.membus.pkt_count_system.l2.mem_side::system.mem_ctrls.port        15262                       # Packet count per connected master and slave (bytes)
system.membus.pkt_count::total                  15262                       # Packet count per connected master and slave (bytes)
system.membus.pkt_size_system.l2.mem_side::system.mem_ctrls.port       467008                       # Cumulative packet size per connected master and slave (bytes)
system.membus.pkt_size::total                  467008                       # Cumulative packet size per connected master and slave (bytes)
system.membus.snoops                                0                       # Total snoops (count)
system.membus.snoopTraffic                          0                       # Total snoop traffic (bytes)
system.membus.snoop_fanout::samples              6567                       # Request fanout histogram
system.membus.snoop_fanout::mean                    0                       # Request fanout histogram
system.membus.snoop_fanout::stdev                   0                       # Request fanout histogram
system.membus.snoop_fanout::underflows              0      0.00%      0.00% # Request fanout histogram
system.membus.snoop_fanout::0                    6567    100.00%    100.00% # Request fanout histogram
system.membus.snoop_fanout::1                       0      0.00%    100.00% # Request fanout histogram
system.membus.snoop_fanout::overflows               0      0.00%    100.00% # Request fanout histogram
system.membus.snoop_fanout::min_value               0                       # Request fanout histogram
system.membus.snoop_fanout::max_value               0                       # Request fanout histogram
system.membus.snoop_fanout::total                6567                       # Request fanout histogram
system.membus.respLayer1.occupancy           34989500                       # Layer occupancy (ticks)
system.membus.respLayer1.utilization              0.0                       # Layer utilization (%)
system.membus.reqLayer0.occupancy            11615000                       # Layer occupancy (ticks)
system.membus.reqLayer0.utilization               0.0                       # Layer utilization (%)
system.tol2bus.pwrStateResidencyTicks::UNDEFINED 118929970000                       # Cumulative time (in ticks) in various power states
system.tol2bus.trans_dist::ReadResp             29910                       # Transaction distribution
system.tol2bus.trans_dist::WritebackDirty        94373                       # Transaction distribution
system.tol2bus.trans_dist::WritebackClean         3333                       # Transaction distribution
system.tol2bus.trans_dist::CleanEvict            6006                       # Transaction distribution
system.tol2bus.trans_dist::ReadExReq            71602                       # Transaction distribution
system.tol2bus.trans_dist::ReadExResp           71602                       # Transaction distribution
system.tol2bus.trans_dist::ReadCleanReq          3841                       # Transaction distribution
system.tol2bus.trans_dist::ReadSharedReq        26069                       # Transaction distribution
system.tol2bus.pkt_count_system.cpu.icache.mem_side::system.l2.cpu_side        11015                       # Packet count per connected master and slave (bytes)
system.tol2bus.pkt_count_system.cpu.dcache.mem_side::system.l2.cpu_side       292501                       # Packet count per connected master and slave (bytes)
system.tol2bus.pkt_count::total                303516                       # Packet count per connected master and slave (bytes)
system.tol2bus.pkt_size_system.cpu.icache.mem_side::system.l2.cpu_side       459136                       # Cumulative packet size per connected master and slave (bytes)
system.tol2bus.pkt_size_system.cpu.dcache.mem_side::system.l2.cpu_side     12244096                       # Cumulative packet size per connected master and slave (bytes)
system.tol2bus.pkt_size::total               12703232                       # Cumulative packet size per connected master and slave (bytes)
system.tol2bus.snoops                            3220                       # Total snoops (count)
system.tol2bus.snoopTraffic                     46720                       # Total snoop traffic (bytes)
system.tol2bus.snoop_fanout::samples           104732                       # Request fanout histogram
system.tol2bus.snoop_fanout::mean            0.023842                       # Request fanout histogram
system.tol2bus.snoop_fanout::stdev           0.153866                       # Request fanout histogram
system.tol2bus.snoop_fanout::underflows             0      0.00%      0.00% # Request fanout histogram
system.tol2bus.snoop_fanout::0                 102256     97.64%     97.64% # Request fanout histogram
system.tol2bus.snoop_fanout::1                   2455      2.34%     99.98% # Request fanout histogram
system.tol2bus.snoop_fanout::2                     21      0.02%    100.00% # Request fanout histogram
system.tol2bus.snoop_fanout::overflows              0      0.00%    100.00% # Request fanout histogram
system.tol2bus.snoop_fanout::min_value              0                       # Request fanout histogram
system.tol2bus.snoop_fanout::max_value              2                       # Request fanout histogram
system.tol2bus.snoop_fanout::total             104732                       # Request fanout histogram
system.tol2bus.reqLayer0.occupancy          395956000                       # Layer occupancy (ticks)
system.tol2bus.reqLayer0.utilization              0.3                       # Layer utilization (%)
system.tol2bus.respLayer1.occupancy         293018994                       # Layer occupancy (ticks)
system.tol2bus.respLayer1.utilization             0.2                       # Layer utilization (%)
system.tol2bus.respLayer0.occupancy          11526996                       # Layer occupancy (ticks)
system.tol2bus.respLayer0.utilization             0.0                       # Layer utilization (%)
system.voltage_domain.voltage                       1                       # Voltage in Volts
system.clk_domain.clock                          1000                       # Clock period in ticks
system.l2.pwrStateResidencyTicks::UNDEFINED 118929970000                       # Cumulative time (in ticks) in various power states
system.l2.demand_hits::.cpu.inst                 2402                       # number of demand (read+write) hits
system.l2.demand_hits::.cpu.data                92535                       # number of demand (read+write) hits
system.l2.demand_hits::total                    94937                       # number of demand (read+write) hits
system.l2.overall_hits::.cpu.inst                2402                       # number of overall hits
system.l2.overall_hits::.cpu.data               92535                       # number of overall hits
system.l2.overall_hits::total                   94937                       # number of overall hits
system.l2.demand_misses::.cpu.inst               1439                       # number of demand (read+write) misses
system.l2.demand_misses::.cpu.data               5136                       # number of demand (read+write) misses
system.l2.demand_misses::total                   6575                       # number of demand (read+write) misses
system.l2.overall_misses::.cpu.inst              1439                       # number of overall misses
system.l2.overall_misses::.cpu.data              5136                       # number of overall misses
system.l2.overall_misses::total                  6575                       # number of overall misses
system.l2.demand_miss_latency::.cpu.inst    141030000                       # number of demand (read+write) miss cycles
system.l2.demand_miss_latency::.cpu.data    502042000                       # number of demand (read+write) miss cycles
system.l2.demand_miss_latency::total        643072000                       # number of demand (read+write) miss cycles
system.l2.overall_miss_latency::.cpu.inst    141030000                       # number of overall miss cycles
system.l2.overall_miss_latency::.cpu.data    502042000                       # number of overall miss cycles
system.l2.overall_miss_latency::total       643072000                       # number of overall miss cycles
system.l2.demand_accesses::.cpu.inst             3841                       # number of demand (read+write) accesses
system.l2.demand_accesses::.cpu.data            97671                       # number of demand (read+write) accesses
system.l2.demand_accesses::total               101512                       # number of demand (read+write) accesses
system.l2.overall_accesses::.cpu.inst            3841                       # number of overall (read+write) accesses
system.l2.overall_accesses::.cpu.data           97671                       # number of overall (read+write) accesses
system.l2.overall_accesses::total              101512                       # number of overall (read+write) accesses
system.l2.demand_miss_rate::.cpu.inst        0.374642                       # miss rate for demand accesses
system.l2.demand_miss_rate::.cpu.data        0.052585                       # miss rate for demand accesses
system.l2.demand_miss_rate::total            0.064771                       # miss rate for demand accesses
system.l2.overall_miss_rate::.cpu.inst       0.374642                       # miss rate for overall accesses
system.l2.overall_miss_rate::.cpu.data       0.052585                       # miss rate for overall accesses
system.l2.overall_miss_rate::total           0.064771                       # miss rate for overall accesses
system.l2.demand_avg_miss_latency::.cpu.inst 98005.559416                       # average overall miss latency
system.l2.demand_avg_miss_latency::.cpu.data 97749.610592                       # average overall miss latency
system.l2.demand_avg_miss_latency::total 97805.627376                       # average overall miss latency
system.l2.overall_avg_miss_latency::.cpu.inst 98005.559416                       # average overall miss latency
system.l2.overall_avg_miss_latency::.cpu.data 97749.610592                       # average overall miss latency
system.l2.overall_avg_miss_latency::total 97805.627376                       # average overall miss latency
system.l2.blocked_cycles::no_mshrs                  0                       # number of cycles access was blocked
system.l2.blocked_cycles::no_targets                0                       # number of cycles access was blocked
system.l2.blocked::no_mshrs                         0                       # number of cycles access was blocked
system.l2.blocked::no_targets                       0                       # number of cycles access was blocked
system.l2.avg_blocked_cycles::no_mshrs            nan                       # average number of cycles each access was blocked
system.l2.avg_blocked_cycles::no_targets          nan                       # average number of cycles each access was blocked
system.l2.writebacks::.writebacks                 730                       # number of writebacks
system.l2.writebacks::total                       730                       # number of writebacks
system.l2.demand_mshr_hits::.cpu.inst               2                       # number of demand (read+write) MSHR hits
system.l2.demand_mshr_hits::.cpu.data               6                       # number of demand (read+write) MSHR hits
system.l2.demand_mshr_hits::total                   8                       # number of demand (read+write) MSHR hits
system.l2.overall_mshr_hits::.cpu.inst              2                       # number of overall MSHR hits
system.l2.overall_mshr_hits::.cpu.data              6                       # number of overall MSHR hits
system.l2.overall_mshr_hits::total                  8                       # number of overall MSHR hits
system.l2.demand_mshr_misses::.cpu.inst          1437                       # number of demand (read+write) MSHR misses
system.l2.demand_mshr_misses::.cpu.data          5130                       # number of demand (read+write) MSHR misses
system.l2.demand_mshr_misses::total              6567                       # number of demand (read+write) MSHR misses
system.l2.overall_mshr_misses::.cpu.inst         1437                       # number of overall MSHR misses
system.l2.overall_mshr_misses::.cpu.data         5130                       # number of overall MSHR misses
system.l2.overall_mshr_misses::total             6567                       # number of overall MSHR misses
system.l2.demand_mshr_miss_latency::.cpu.inst    111923000                       # number of demand (read+write) MSHR miss cycles
system.l2.demand_mshr_miss_latency::.cpu.data    398991000                       # number of demand (read+write) MSHR miss cycles
system.l2.demand_mshr_miss_latency::total    510914000                       # number of demand (read+write) MSHR miss cycles
system.l2.overall_mshr_miss_latency::.cpu.inst    111923000                       # number of overall MSHR miss cycles
system.l2.overall_mshr_miss_latency::.cpu.data    398991000                       # number of overall MSHR miss cycles
system.l2.overall_mshr_miss_latency::total    510914000                       # number of overall MSHR miss cycles
system.l2.demand_mshr_miss_rate::.cpu.inst     0.374121                       # mshr miss rate for demand accesses
system.l2.demand_mshr_miss_rate::.cpu.data     0.052523                       # mshr miss rate for demand accesses
system.l2.demand_mshr_miss_rate::total       0.064692                       # mshr miss rate for demand accesses
system.l2.overall_mshr_miss_rate::.cpu.inst     0.374121                       # mshr miss rate for overall accesses
system.l2.overall_mshr_miss_rate::.cpu.data     0.052523                       # mshr miss rate for overall accesses
system.l2.overall_mshr_miss_rate::total      0.064692                       # mshr miss rate for overall accesses
system.l2.demand_avg_mshr_miss_latency::.cpu.inst 77886.569241                       # average overall mshr miss latency
system.l2.demand_avg_mshr_miss_latency::.cpu.data 77776.023392                       # average overall mshr miss latency
system.l2.demand_avg_mshr_miss_latency::total 77800.213187                       # average overall mshr miss latency
system.l2.overall_avg_mshr_miss_latency::.cpu.inst 77886.569241                       # average overall mshr miss latency
system.l2.overall_avg_mshr_miss_latency::.cpu.data 77776.023392                       # average overall mshr miss latency
system.l2.overall_avg_mshr_miss_latency::total 77800.213187                       # average overall mshr miss latency
system.l2.replacements                           3220                       # number of replacements
system.l2.WritebackDirty_hits::.writebacks        93643                       # number of WritebackDirty hits
system.l2.WritebackDirty_hits::total            93643                       # number of WritebackDirty hits
system.l2.WritebackDirty_accesses::.writebacks        93643                       # number of WritebackDirty accesses(hits+misses)
system.l2.WritebackDirty_accesses::total        93643                       # number of WritebackDirty accesses(hits+misses)
system.l2.WritebackClean_hits::.writebacks         3260                       # number of WritebackClean hits
system.l2.WritebackClean_hits::total             3260                       # number of WritebackClean hits
system.l2.WritebackClean_accesses::.writebacks         3260                       # number of WritebackClean accesses(hits+misses)
system.l2.WritebackClean_accesses::total         3260                       # number of WritebackClean accesses(hits+misses)
system.l2.CleanEvict_mshr_misses::.writebacks          153                       # number of CleanEvict MSHR misses
system.l2.CleanEvict_mshr_misses::total           153                       # number of CleanEvict MSHR misses
system.l2.CleanEvict_mshr_miss_rate::.writebacks          inf                       # mshr miss rate for CleanEvict accesses
system.l2.CleanEvict_mshr_miss_rate::total          inf                       # mshr miss rate for CleanEvict accesses
system.l2.ReadExReq_hits::.cpu.data             67441                       # number of ReadExReq hits
system.l2.ReadExReq_hits::total                 67441                       # number of ReadExReq hits
system.l2.ReadExReq_misses::.cpu.data            4161                       # number of ReadExReq misses
system.l2.ReadExReq_misses::total                4161                       # number of ReadExReq misses
system.l2.ReadExReq_miss_latency::.cpu.data    403499000                       # number of ReadExReq miss cycles
system.l2.ReadExReq_miss_latency::total     403499000                       # number of ReadExReq miss cycles
system.l2.ReadExReq_accesses::.cpu.data         71602                       # number of ReadExReq accesses(hits+misses)
system.l2.ReadExReq_accesses::total             71602                       # number of ReadExReq accesses(hits+misses)
system.l2.ReadExReq_miss_rate::.cpu.data     0.058113                       # miss rate for ReadExReq accesses
system.l2.ReadExReq_miss_rate::total         0.058113                       # miss rate for ReadExReq accesses
system.l2.ReadExReq_avg_miss_latency::.cpu.data 96971.641432                       # average ReadExReq miss latency
system.l2.ReadExReq_avg_miss_latency::total 96971.641432                       # average ReadExReq miss latency
system.l2.ReadExReq_mshr_misses::.cpu.data         4161                       # number of ReadExReq MSHR misses
system.l2.ReadExReq_mshr_misses::total           4161                       # number of ReadExReq MSHR misses
system.l2.ReadExReq_mshr_miss_latency::.cpu.data    320279000                       # number of ReadExReq MSHR miss cycles
system.l2.ReadExReq_mshr_miss_latency::total    320279000                       # number of ReadExReq MSHR miss cycles
system.l2.ReadExReq_mshr_miss_rate::.cpu.data     0.058113                       # mshr miss rate for ReadExReq accesses
system.l2.ReadExReq_mshr_miss_rate::total     0.058113                       # mshr miss rate for ReadExReq accesses
system.l2.ReadExReq_avg_mshr_miss_latency::.cpu.data 76971.641432                       # average ReadExReq mshr miss latency
system.l2.ReadExReq_avg_mshr_miss_latency::total 76971.641432                       # average ReadExReq mshr miss latency
system.l2.ReadCleanReq_hits::.cpu.inst           2402                       # number of ReadCleanReq hits
system.l2.ReadCleanReq_hits::total               2402                       # number of ReadCleanReq hits
system.l2.ReadCleanReq_misses::.cpu.inst         1439                       # number of ReadCleanReq misses
system.l2.ReadCleanReq_misses::total             1439                       # number of ReadCleanReq misses
system.l2.ReadCleanReq_miss_latency::.cpu.inst    141030000                       # number of ReadCleanReq miss cycles
system.l2.ReadCleanReq_miss_latency::total    141030000                       # number of ReadCleanReq miss cycles
system.l2.ReadCleanReq_accesses::.cpu.inst         3841                       # number of ReadCleanReq accesses(hits+misses)
system.l2.ReadCleanReq_accesses::total           3841                       # number of ReadCleanReq accesses(hits+misses)
system.l2.ReadCleanReq_miss_rate::.cpu.inst     0.374642                       # miss rate for ReadCleanReq accesses
system.l2.ReadCleanReq_miss_rate::total      0.374642                       # miss rate for ReadCleanReq accesses
system.l2.ReadCleanReq_avg_miss_latency::.cpu.inst 98005.559416                       # average ReadCleanReq miss latency
system.l2.ReadCleanReq_avg_miss_latency::total 98005.559416                       # average ReadCleanReq miss latency
system.l2.ReadCleanReq_mshr_hits::.cpu.inst            2                       # number of ReadCleanReq MSHR hits
system.l2.ReadCleanReq_mshr_hits::total             2                       # number of ReadCleanReq MSHR hits
system.l2.ReadCleanReq_mshr_misses::.cpu.inst         1437                       # number of ReadCleanReq MSHR misses
system.l2.ReadCleanReq_mshr_misses::total         1437                       # number of ReadCleanReq MSHR misses
system.l2.ReadCleanReq_mshr_miss_latency::.cpu.inst    111923000                       # number of ReadCleanReq MSHR miss cycles
system.l2.ReadCleanReq_mshr_miss_latency::total    111923000                       # number of ReadCleanReq MSHR miss cycles
system.l2.ReadCleanReq_mshr_miss_rate::.cpu.inst     0.374121                       # mshr miss rate for ReadCleanReq accesses
system.l2.ReadCleanReq_mshr_miss_rate::total     0.374121                       # mshr miss rate for ReadCleanReq accesses
system.l2.ReadCleanReq_avg_mshr_miss_latency::.cpu.inst 77886.569241                       # average ReadCleanReq mshr miss latency
system.l2.ReadCleanReq_avg_mshr_miss_latency::total 77886.569241                       # average ReadCleanReq mshr miss latency
system.l2.ReadSharedReq_hits::.cpu.data         25094                       # number of ReadSharedReq hits
system.l2.ReadSharedReq_hits::total             25094                       # number of ReadSharedReq hits
system.l2.ReadSharedReq_misses::.cpu.data          975                       # number of ReadSharedReq misses
system.l2.ReadSharedReq_misses::total             975                       # number of ReadSharedReq misses
system.l2.ReadSharedReq_miss_latency::.cpu.data     98543000                       # number of ReadSharedReq miss cycles
system.l2.ReadSharedReq_miss_latency::total     98543000                       # number of ReadSharedReq miss cycles
system.l2.ReadSharedReq_accesses::.cpu.data        26069                       # number of ReadSharedReq accesses(hits+misses)
system.l2.ReadSharedReq_accesses::total         26069                       # number of ReadSharedReq accesses(hits+misses)
system.l2.ReadSharedReq_miss_rate::.cpu.data     0.037401                       # miss rate for ReadSharedReq accesses
system.l2.ReadSharedReq_miss_rate::total     0.037401                       # miss rate for ReadSharedReq accesses
system.l2.ReadSharedReq_avg_miss_latency::.cpu.data 101069.743590                       # average ReadSharedReq miss latency
system.l2.ReadSharedReq_avg_miss_latency::total 101069.743590                       # average ReadSharedReq miss latency
system.l2.ReadSharedReq_mshr_hits::.cpu.data            6                       # number of ReadSharedReq MSHR hits
system.l2.ReadSharedReq_mshr_hits::total            6                       # number of ReadSharedReq MSHR hits
system.l2.ReadSharedReq_mshr_misses::.cpu.data          969                       # number of ReadSharedReq MSHR misses
system.l2.ReadSharedReq_mshr_misses::total          969                       # number of ReadSharedReq MSHR misses
system.l2.ReadSharedReq_mshr_miss_latency::.cpu.data     78712000                       # number of ReadSharedReq MSHR miss cycles
system.l2.ReadSharedReq_mshr_miss_latency::total     78712000                       # number of ReadSharedReq MSHR miss cycles
system.l2.ReadSharedReq_mshr_miss_rate::.cpu.data     0.037171                       # mshr miss rate for ReadSharedReq accesses
system.l2.ReadSharedReq_mshr_miss_rate::total     0.037171                       # mshr miss rate for ReadSharedReq accesses
system.l2.ReadSharedReq_avg_mshr_miss_latency::.cpu.data 81230.134159                       # average ReadSharedReq mshr miss latency
system.l2.ReadSharedReq_avg_mshr_miss_latency::total 81230.134159                       # average ReadSharedReq mshr miss latency
system.l2.tags.pwrStateResidencyTicks::UNDEFINED 118929970000                       # Cumulative time (in ticks) in various power states
system.l2.tags.tagsinuse                  3842.397607                       # Cycle average of tags in use
system.l2.tags.total_refs                      200616                       # Total number of references to valid blocks.
system.l2.tags.sampled_refs                      7166                       # Sample count of references to valid blocks.
system.l2.tags.avg_refs                     27.995534                       # Average number of references to valid blocks.
system.l2.tags.warmup_cycle                     87000                       # Cycle when the warmup percentage was hit.
system.l2.tags.occ_blocks::.writebacks      61.505493                       # Average occupied blocks per requestor
system.l2.tags.occ_blocks::.cpu.inst       229.691971                       # Average occupied blocks per requestor
system.l2.tags.occ_blocks::.cpu.data      3551.200143                       # Average occupied blocks per requestor
system.l2.tags.occ_percent::.writebacks      0.015016                       # Average percentage of cache occupancy
system.l2.tags.occ_percent::.cpu.inst        0.056077                       # Average percentage of cache occupancy
system.l2.tags.occ_percent::.cpu.data        0.866992                       # Average percentage of cache occupancy
system.l2.tags.occ_percent::total            0.938085                       # Average percentage of cache occupancy
system.l2.tags.occ_task_id_blocks::1024          3946                       # Occupied blocks per task id
system.l2.tags.age_task_id_blocks_1024::2            7                       # Occupied blocks per task id
system.l2.tags.age_task_id_blocks_1024::3           70                       # Occupied blocks per task id
system.l2.tags.age_task_id_blocks_1024::4         3869                       # Occupied blocks per task id
system.l2.tags.occ_task_id_percent::1024     0.963379                       # Percentage of cache occupancy per task id
system.l2.tags.tag_accesses                    408720                       # Number of tag accesses
system.l2.tags.data_accesses                   408720                       # Number of data accesses
system.cpu_voltage_domain.voltage                   1                       # Voltage in Volts
system.mem_ctrls.pwrStateResidencyTicks::UNDEFINED 118929970000                       # Cumulative time (in ticks) in various power states
system.mem_ctrls.bytes_read::.cpu.inst          91968                       # Number of bytes read from this memory
system.mem_ctrls.bytes_read::.cpu.data         328320                       # Number of bytes read from this memory
system.mem_ctrls.bytes_read::total             420288                       # Number of bytes read from this memory
system.mem_ctrls.bytes_inst_read::.cpu.inst        91968                       # Number of instructions bytes read from this memory
system.mem_ctrls.bytes_inst_read::total         91968                       # Number of instructions bytes read from this memory
system.mem_ctrls.bytes_written::.writebacks        46720                       # Number of bytes written to this memory
system.mem_ctrls.bytes_written::total           46720                       # Number of bytes written to this memory
system.mem_ctrls.num_reads::.cpu.inst            1437                       # Number of read requests responded to by this memory
system.mem_ctrls.num_reads::.cpu.data            5130                       # Number of read requests responded to by this memory
system.mem_ctrls.num_reads::total                6567                       # Number of read requests responded to by this memory
system.mem_ctrls.num_writes::.writebacks          730                       # Number of write requests responded to by this memory
system.mem_ctrls.num_writes::total                730                       # Number of write requests responded to by this memory
system.mem_ctrls.bw_read::.cpu.inst            773295                       # Total read bandwidth from this memory (bytes/s)
system.mem_ctrls.bw_read::.cpu.data           2760616                       # Total read bandwidth from this memory (bytes/s)
system.mem_ctrls.bw_read::total               3533912                       # Total read bandwidth from this memory (bytes/s)
system.mem_ctrls.bw_inst_read::.cpu.inst       773295                       # Instruction read bandwidth from this memory (bytes/s)
system.mem_ctrls.bw_inst_read::total           773295                       # Instruction read bandwidth from this memory (bytes/s)
system.mem_ctrls.bw_write::.writebacks         392836                       # Write bandwidth from this memory (bytes/s)
system.mem_ctrls.bw_write::total               392836                       # Write bandwidth from this memory (bytes/s)
system.mem_ctrls.bw_total::.writebacks         392836                       # Total bandwidth to/from this memory (bytes/s)
system.mem_ctrls.bw_total::.cpu.inst           773295                       # Total bandwidth to/from this memory (bytes/s)
system.mem_ctrls.bw_total::.cpu.data          2760616                       # Total bandwidth to/from this memory (bytes/s)
system.mem_ctrls.bw_total::total              3926748                       # Total bandwidth to/from this memory (bytes/s)
system.mem_ctrls.avgPriority_.writebacks::samples       656.00                       # Average QoS priority value for accepted requests
system.mem_ctrls.avgPriority_.cpu.inst::samples      1437.00                       # Average QoS priority value for accepted requests
system.mem_ctrls.avgPriority_.cpu.data::samples      4788.00                       # Average QoS priority value for accepted requests
system.mem_ctrls.priorityMinLatency      0.000000018750                       # per QoS priority minimum request to response latency (s)
system.mem_ctrls.priorityMaxLatency      0.056443400500                       # per QoS priority maximum request to response latency (s)
system.mem_ctrls.numReadWriteTurnArounds           35                       # Number of turnarounds from READ to WRITE
system.mem_ctrls.numWriteReadTurnArounds           35                       # Number of turnarounds from WRITE to READ
system.mem_ctrls.numStayReadState               43707                       # Number of times bus staying in READ state
system.mem_ctrls.numStayWriteState                592                       # Number of times bus staying in WRITE state
system.mem_ctrls.readReqs                        6567                       # Number of read requests accepted
system.mem_ctrls.writeReqs                        730                       # Number of write requests accepted
system.mem_ctrls.readBursts                      6567                       # Number of DRAM read bursts, including those serviced by the write queue
system.mem_ctrls.writeBursts                      730                       # Number of DRAM write bursts, including those merged in the write queue
system.mem_ctrls.servicedByWrQ                    342                       # Number of DRAM read bursts serviced by the write queue
system.mem_ctrls.mergedWrBursts                    74                       # Number of DRAM write bursts merged with an existing one
system.mem_ctrls.neitherReadNorWriteReqs            0                       # Number of requests that are neither read nor write
system.mem_ctrls.perBankRdBursts::0               254                       # Per bank write bursts
system.mem_ctrls.perBankRdBursts::1               298                       # Per bank write bursts
system.mem_ctrls.perBankRdBursts::2               185                       # Per bank write bursts
system.mem_ctrls.perBankRdBursts::3               523                       # Per bank write bursts
system.mem_ctrls.perBankRdBursts::4               518                       # Per bank write bursts
system.mem_ctrls.perBankRdBursts::5               401                       # Per bank write bursts
system.mem_ctrls.perBankRdBursts::6               377                       # Per bank write bursts
system.mem_ctrls.perBankRdBursts::7               436                       # Per bank write bursts
system.mem_ctrls.perBankRdBursts::8               598                       # Per bank write bursts
system.mem_ctrls.perBankRdBursts::9               451                       # Per bank write bursts
system.mem_ctrls.perBankRdBursts::10              466                       # Per bank write bursts
system.mem_ctrls.perBankRdBursts::11              288                       # Per bank write bursts
system.mem_ctrls.perBankRdBursts::12              311                       # Per bank write bursts
system.mem_ctrls.perBankRdBursts::13              339                       # Per bank write bursts
system.mem_ctrls.perBankRdBursts::14              447                       # Per bank write bursts
system.mem_ctrls.perBankRdBursts::15              333                       # Per bank write bursts
system.mem_ctrls.perBankWrBursts::0                 2                       # Per bank write bursts
system.mem_ctrls.perBankWrBursts::1                 7                       # Per bank write bursts
system.mem_ctrls.perBankWrBursts::2                 3                       # Per bank write bursts
system.mem_ctrls.perBankWrBursts::3                31                       # Per bank write bursts
system.mem_ctrls.perBankWrBursts::4                69                       # Per bank write bursts
system.mem_ctrls.perBankWrBursts::5                18                       # Per bank write bursts
system.mem_ctrls.perBankWrBursts::6                 0                       # Per bank write bursts
system.mem_ctrls.perBankWrBursts::7                16                       # Per bank write bursts
system.mem_ctrls.perBankWrBursts::8               240                       # Per bank write bursts
system.mem_ctrls.perBankWrBursts::9                69                       # Per bank write bursts
system.mem_ctrls.perBankWrBursts::10               56                       # Per bank write bursts
system.mem_ctrls.perBankWrBursts::11                0                       # Per bank write bursts
system.mem_ctrls.perBankWrBursts::12                0                       # Per bank write bursts
system.mem_ctrls.perBankWrBursts::13                0                       # Per bank write bursts
system.mem_ctrls.perBankWrBursts::14               68                       # Per bank write bursts
system.mem_ctrls.perBankWrBursts::15               46                       # Per bank write bursts
system.mem_ctrls.avgRdQLen                       1.00                       # Average read queue length when enqueuing
system.mem_ctrls.avgWrQLen                      24.17                       # Average write queue length when enqueuing
system.mem_ctrls.totQLat                     60370000                       # Total ticks spent queuing
system.mem_ctrls.totBusLat                   31125000                       # Total ticks spent in databus transfers
system.mem_ctrls.totMemAccLat               177088750                       # Total ticks spent from burst creation until serviced by the DRAM
system.mem_ctrls.avgQLat                      9697.99                       # Average queueing delay per DRAM burst
system.mem_ctrls.avgBusLat                    5000.00                       # Average bus latency per DRAM burst
system.mem_ctrls.avgMemAccLat                28447.99                       # Average memory access latency per DRAM burst
system.mem_ctrls.numRdRetry                         0                       # Number of times read queue was full causing retry
system.mem_ctrls.numWrRetry                         0                       # Number of times write queue was full causing retry
system.mem_ctrls.readRowHits                     3823                       # Number of row buffer hits during reads
system.mem_ctrls.writeRowHits                     469                       # Number of row buffer hits during writes
system.mem_ctrls.readRowHitRate                 61.41                       # Row buffer hit rate for reads
system.mem_ctrls.writeRowHitRate                71.49                       # Row buffer hit rate for writes
system.mem_ctrls.readPktSize::0                     0                       # Read request sizes (log2)
system.mem_ctrls.readPktSize::1                     0                       # Read request sizes (log2)
system.mem_ctrls.readPktSize::2                     0                       # Read request sizes (log2)
system.mem_ctrls.readPktSize::3                     0                       # Read request sizes (log2)
system.mem_ctrls.readPktSize::4                     0                       # Read request sizes (log2)
system.mem_ctrls.readPktSize::5                     0                       # Read request sizes (log2)
system.mem_ctrls.readPktSize::6                  6567                       # Read request sizes (log2)
system.mem_ctrls.writePktSize::0                    0                       # Write request sizes (log2)
system.mem_ctrls.writePktSize::1                    0                       # Write request sizes (log2)
system.mem_ctrls.writePktSize::2                    0                       # Write request sizes (log2)
system.mem_ctrls.writePktSize::3                    0                       # Write request sizes (log2)
system.mem_ctrls.writePktSize::4                    0                       # Write request sizes (log2)
system.mem_ctrls.writePktSize::5                    0                       # Write request sizes (log2)
system.mem_ctrls.writePktSize::6                  730                       # Write request sizes (log2)
system.mem_ctrls.rdQLenPdf::0                    5980                       # What read queue length does an incoming req see
system.mem_ctrls.rdQLenPdf::1                     228                       # What read queue length does an incoming req see
system.mem_ctrls.rdQLenPdf::2                      17                       # What read queue length does an incoming req see
system.mem_ctrls.rdQLenPdf::3                       0                       # What read queue length does an incoming req see
system.mem_ctrls.rdQLenPdf::4                       0                       # What read queue length does an incoming req see
system.mem_ctrls.rdQLenPdf::5                       0                       # What read queue length does an incoming req see
system.mem_ctrls.rdQLenPdf::6                       0                       # What read queue length does an incoming req see
system.mem_ctrls.rdQLenPdf::7                       0                       # What read queue length does an incoming req see
system.mem_ctrls.rdQLenPdf::8                       0                       # What read queue length does an incoming req see
system.mem_ctrls.rdQLenPdf::9                       0                       # What read queue length does an incoming req see
system.mem_ctrls.rdQLenPdf::10                      0                       # What read queue length does an incoming req see
system.mem_ctrls.rdQLenPdf::11                      0                       # What read queue length does an incoming req see
system.mem_ctrls.rdQLenPdf::12                      0                       # What read queue length does an incoming req see
system.mem_ctrls.rdQLenPdf::13                      0                       # What read queue length does an incoming req see
system.mem_ctrls.rdQLenPdf::14                      0                       # What read queue length does an incoming req see
system.mem_ctrls.rdQLenPdf::15                      0                       # What read queue length does an incoming req see
system.mem_ctrls.rdQLenPdf::16                      0                       # What read queue length does an incoming req see
system.mem_ctrls.rdQLenPdf::17                      0                       # What read queue length does an incoming req see
system.mem_ctrls.rdQLenPdf::18                      0                       # What read queue length does an incoming req see
system.mem_ctrls.rdQLenPdf::19                      0                       # What read queue length does an incoming req see
system.mem_ctrls.rdQLenPdf::20                      0                       # What read queue length does an incoming req see
system.mem_ctrls.rdQLenPdf::21                      0                       # What read queue length does an incoming req see
system.mem_ctrls.rdQLenPdf::22                      0                       # What read queue length does an incoming req see
system.mem_ctrls.rdQLenPdf::23                      0                       # What read queue length does an incoming req see
system.mem_ctrls.rdQLenPdf::24                      0                       # What read queue length does an incoming req see
system.mem_ctrls.rdQLenPdf::25                      0                       # What read queue length does an incoming req see
system.mem_ctrls.rdQLenPdf::26                      0                       # What read queue length does an incoming req see
system.mem_ctrls.rdQLenPdf::27                      0                       # What read queue length does an incoming req see
system.mem_ctrls.rdQLenPdf::28                      0                       # What read queue length does an incoming req see
system.mem_ctrls.rdQLenPdf::29                      0                       # What read queue length does an incoming req see
system.mem_ctrls.rdQLenPdf::30                      0                       # What read queue length does an incoming req see
system.mem_ctrls.rdQLenPdf::31                      0                       # What read queue length does an incoming req see
system.mem_ctrls.wrQLenPdf::0                       1                       # What write queue length does an incoming req see
system.mem_ctrls.wrQLenPdf::1                       1                       # What write queue length does an incoming req see
system.mem_ctrls.wrQLenPdf::2                       1                       # What write queue length does an incoming req see
system.mem_ctrls.wrQLenPdf::3                       1                       # What write queue length does an incoming req see
system.mem_ctrls.wrQLenPdf::4                       1                       # What write queue length does an incoming req see
system.mem_ctrls.wrQLenPdf::5                       1                       # What write queue length does an incoming req see
system.mem_ctrls.wrQLenPdf::6                       1                       # What write queue length does an incoming req see
system.mem_ctrls.wrQLenPdf::7                       1                       # What write queue length does an incoming req see
system.mem_ctrls.wrQLenPdf::8                       1                       # What write queue length does an incoming req see
system.mem_ctrls.wrQLenPdf::9                       1                       # What write queue length does an incoming req see
system.mem_ctrls.wrQLenPdf::10                      1                       # What write queue length does an incoming req see
system.mem_ctrls.wrQLenPdf::11                      1                       # What write queue length does an incoming req see
system.mem_ctrls.wrQLenPdf::12                      1                       # What write queue length does an incoming req see
system.mem_ctrls.wrQLenPdf::13                      1                       # What write queue length does an incoming req see
system.mem_ctrls.wrQLenPdf::14                      1                       # What write queue length does an incoming req see
system.mem_ctrls.wrQLenPdf::15                     31                       # What write queue length does an incoming req see
system.mem_ctrls.wrQLenPdf::16                     32                       # What write queue length does an incoming req see
system.mem_ctrls.wrQLenPdf::17                     37                       # What write queue length does an incoming req see
system.mem_ctrls.wrQLenPdf::18                     35                       # What write queue length does an incoming req see
system.mem_ctrls.wrQLenPdf::19                     36                       # What write queue length does an incoming req see
system.mem_ctrls.wrQLenPdf::20                     37                       # What write queue length does an incoming req see
system.mem_ctrls.wrQLenPdf::21                     37                       # What write queue length does an incoming req see
system.mem_ctrls.wrQLenPdf::22                     36                       # What write queue length does an incoming req see
system.mem_ctrls.wrQLenPdf::23                     36                       # What write queue length does an incoming req see
system.mem_ctrls.wrQLenPdf::24                     37                       # What write queue length does an incoming req see
system.mem_ctrls.wrQLenPdf::25                     37                       # What write queue length does an incoming req see
system.mem_ctrls.wrQLenPdf::26                     36                       # What write queue length does an incoming req see
system.mem_ctrls.wrQLenPdf::27                     36                       # What write queue length does an incoming req see
system.mem_ctrls.wrQLenPdf::28                     36                       # What write queue length does an incoming req see
system.mem_ctrls.wrQLenPdf::29                     36                       # What write queue length does an incoming req see
system.mem_ctrls.wrQLenPdf::30                     36                       # What write queue length does an incoming req see
system.mem_ctrls.wrQLenPdf::31                     35                       # What write queue length does an incoming req see
system.mem_ctrls.wrQLenPdf::32                     35                       # What write queue length does an incoming req see
system.mem_ctrls.wrQLenPdf::33                      0                       # What write queue length does an incoming req see
system.mem_ctrls.wrQLenPdf::34                      0                       # What write queue length does an incoming req see
system.mem_ctrls.wrQLenPdf::35                      0                       # What write queue length does an incoming req see
system.mem_ctrls.wrQLenPdf::36                      0                       # What write queue length does an incoming req see
system.mem_ctrls.wrQLenPdf::37                      0                       # What write queue length does an incoming req see
system.mem_ctrls.wrQLenPdf::38                      0                       # What write queue length does an incoming req see
system.mem_ctrls.wrQLenPdf::39                      0                       # What write queue length does an incoming req see
system.mem_ctrls.wrQLenPdf::40                      0                       # What write queue length does an incoming req see
system.mem_ctrls.wrQLenPdf::41                      0                       # What write queue length does an incoming req see
system.mem_ctrls.wrQLenPdf::42                      0                       # What write queue length does an incoming req see
system.mem_ctrls.wrQLenPdf::43                      0                       # What write queue length does an incoming req see
system.mem_ctrls.wrQLenPdf::44                      0                       # What write queue length does an incoming req see
system.mem_ctrls.wrQLenPdf::45                      0                       # What write queue length does an incoming req see
system.mem_ctrls.wrQLenPdf::46                      0                       # What write queue length does an incoming req see
system.mem_ctrls.wrQLenPdf::47                      0                       # What write queue length does an incoming req see
system.mem_ctrls.wrQLenPdf::48                      0                       # What write queue length does an incoming req see
system.mem_ctrls.wrQLenPdf::49                      0                       # What write queue length does an incoming req see
system.mem_ctrls.wrQLenPdf::50                      0                       # What write queue length does an incoming req see
system.mem_ctrls.wrQLenPdf::51                      0                       # What write queue length does an incoming req see
system.mem_ctrls.wrQLenPdf::52                      0                       # What write queue length does an incoming req see
system.mem_ctrls.wrQLenPdf::53                      0                       # What write queue length does an incoming req see
system.mem_ctrls.wrQLenPdf::54                      0                       # What write queue length does an incoming req see
system.mem_ctrls.wrQLenPdf::55                      0                       # What write queue length does an incoming req see
system.mem_ctrls.wrQLenPdf::56                      0                       # What write queue length does an incoming req see
system.mem_ctrls.wrQLenPdf::57                      0                       # What write queue length does an incoming req see
system.mem_ctrls.wrQLenPdf::58                      0                       # What write queue length does an incoming req see
system.mem_ctrls.wrQLenPdf::59                      0                       # What write queue length does an incoming req see
system.mem_ctrls.wrQLenPdf::60                      0                       # What write queue length does an incoming req see
system.mem_ctrls.wrQLenPdf::61                      0                       # What write queue length does an incoming req see
system.mem_ctrls.wrQLenPdf::62                      0                       # What write queue length does an incoming req see
system.mem_ctrls.wrQLenPdf::63                      0                       # What write queue length does an incoming req see
system.mem_ctrls.bytesPerActivate::samples         2558                       # Bytes accessed per row activation
system.mem_ctrls.bytesPerActivate::mean    171.383894                       # Bytes accessed per row activation
system.mem_ctrls.bytesPerActivate::gmean   110.845071                       # Bytes accessed per row activation
system.mem_ctrls.bytesPerActivate::stdev   229.661311                       # Bytes accessed per row activation
system.mem_ctrls.bytesPerActivate::0-127         1416     55.36%     55.36% # Bytes accessed per row activation
system.mem_ctrls.bytesPerActivate::128-255          746     29.16%     84.52% # Bytes accessed per row activation
system.mem_ctrls.bytesPerActivate::256-383          117      4.57%     89.09% # Bytes accessed per row activation
system.mem_ctrls.bytesPerActivate::384-511           66      2.58%     91.67% # Bytes accessed per row activation
system.mem_ctrls.bytesPerActivate::512-639           33      1.29%     92.96% # Bytes accessed per row activation
system.mem_ctrls.bytesPerActivate::640-767           27      1.06%     94.02% # Bytes accessed per row activation
system.mem_ctrls.bytesPerActivate::768-895           21      0.82%     94.84% # Bytes accessed per row activation
system.mem_ctrls.bytesPerActivate::896-1023           23      0.90%     95.74% # Bytes accessed per row activation
system.mem_ctrls.bytesPerActivate::1024-1151          109      4.26%    100.00% # Bytes accessed per row activation
system.mem_ctrls.bytesPerActivate::total         2558                       # Bytes accessed per row activation
system.mem_ctrls.rdPerTurnAround::samples           35                       # Reads before turning the bus around for writes
system.mem_ctrls.rdPerTurnAround::mean     177.428571                       # Reads before turning the bus around for writes
system.mem_ctrls.rdPerTurnAround::gmean     42.469125                       # Reads before turning the bus around for writes
system.mem_ctrls.rdPerTurnAround::stdev    624.747115                       # Reads before turning the bus around for writes
system.mem_ctrls.rdPerTurnAround::0-127            28     80.00%     80.00% # Reads before turning the bus around for writes
system.mem_ctrls.rdPerTurnAround::128-255            3      8.57%     88.57% # Reads before turning the bus around for writes
system.mem_ctrls.rdPerTurnAround::256-383            2      5.71%     94.29% # Reads before turning the bus around for writes
[...]
system.cpu.icache.tags.age_task_id_blocks_1024::2           12                       # Occupied blocks per task id
system.cpu.icache.tags.age_task_id_blocks_1024::3           14                       # Occupied blocks per task id
system.cpu.icache.tags.age_task_id_blocks_1024::4          482                       # Occupied blocks per task id
system.cpu.icache.tags.occ_task_id_percent::1024     0.992188                       # Percentage of cache occupancy per task id
system.cpu.icache.tags.tag_accesses          34635947                       # Number of tag accesses
system.cpu.icache.tags.data_accesses         34635947                       # Number of data accesses
system.cpu.dtb.walker.pwrStateResidencyTicks::UNDEFINED 118929970000                       # Cumulative time (in ticks) in various power states
system.cpu.dtb.stage2_mmu.stage2_tlb.walker.pwrStateResidencyTicks::UNDEFINED 118929970000                       # Cumulative time (in ticks) in various power states
system.cpu.dcache.pwrStateResidencyTicks::UNDEFINED 118929970000                       # Cumulative time (in ticks) in various power states
system.cpu.dcache.demand_hits::.cpu.data     43805306                       # number of demand (read+write) hits
system.cpu.dcache.demand_hits::total         43805306                       # number of demand (read+write) hits
system.cpu.dcache.overall_hits::.cpu.data     43813853                       # number of overall hits
system.cpu.dcache.overall_hits::total        43813853                       # number of overall hits
system.cpu.dcache.demand_misses::.cpu.data       103384                       # number of demand (read+write) misses
system.cpu.dcache.demand_misses::total         103384                       # number of demand (read+write) misses
system.cpu.dcache.overall_misses::.cpu.data       103551                       # number of overall misses
system.cpu.dcache.overall_misses::total        103551                       # number of overall misses
system.cpu.dcache.demand_miss_latency::.cpu.data   3234767000                       # number of demand (read+write) miss cycles
system.cpu.dcache.demand_miss_latency::total   3234767000                       # number of demand (read+write) miss cycles
system.cpu.dcache.overall_miss_latency::.cpu.data   3234767000                       # number of overall miss cycles
system.cpu.dcache.overall_miss_latency::total   3234767000                       # number of overall miss cycles
system.cpu.dcache.demand_accesses::.cpu.data     43908690                       # number of demand (read+write) accesses
system.cpu.dcache.demand_accesses::total     43908690                       # number of demand (read+write) accesses
system.cpu.dcache.overall_accesses::.cpu.data     43917404                       # number of overall (read+write) accesses
system.cpu.dcache.overall_accesses::total     43917404                       # number of overall (read+write) accesses
system.cpu.dcache.demand_miss_rate::.cpu.data     0.002355                       # miss rate for demand accesses
system.cpu.dcache.demand_miss_rate::total     0.002355                       # miss rate for demand accesses
system.cpu.dcache.overall_miss_rate::.cpu.data     0.002358                       # miss rate for overall accesses
system.cpu.dcache.overall_miss_rate::total     0.002358                       # miss rate for overall accesses
system.cpu.dcache.demand_avg_miss_latency::.cpu.data 31288.855142                       # average overall miss latency
system.cpu.dcache.demand_avg_miss_latency::total 31288.855142                       # average overall miss latency
system.cpu.dcache.overall_avg_miss_latency::.cpu.data 31238.394607                       # average overall miss latency
system.cpu.dcache.overall_avg_miss_latency::total 31238.394607                       # average overall miss latency
system.cpu.dcache.blocked_cycles::no_mshrs          185                       # number of cycles access was blocked
system.cpu.dcache.blocked_cycles::no_targets            0                       # number of cycles access was blocked
system.cpu.dcache.blocked::no_mshrs                 3                       # number of cycles access was blocked
system.cpu.dcache.blocked::no_targets               0                       # number of cycles access was blocked
system.cpu.dcache.avg_blocked_cycles::no_mshrs    61.666667                       # average number of cycles each access was blocked
system.cpu.dcache.avg_blocked_cycles::no_targets          nan                       # average number of cycles each access was blocked
system.cpu.dcache.writebacks::.writebacks        93643                       # number of writebacks
system.cpu.dcache.writebacks::total             93643                       # number of writebacks
system.cpu.dcache.demand_mshr_hits::.cpu.data         5868                       # number of demand (read+write) MSHR hits
system.cpu.dcache.demand_mshr_hits::total         5868                       # number of demand (read+write) MSHR hits
system.cpu.dcache.overall_mshr_hits::.cpu.data         5868                       # number of overall MSHR hits
system.cpu.dcache.overall_mshr_hits::total         5868                       # number of overall MSHR hits
system.cpu.dcache.demand_mshr_misses::.cpu.data        97516                       # number of demand (read+write) MSHR misses
system.cpu.dcache.demand_mshr_misses::total        97516                       # number of demand (read+write) MSHR misses
system.cpu.dcache.overall_mshr_misses::.cpu.data        97670                       # number of overall MSHR misses
system.cpu.dcache.overall_mshr_misses::total        97670                       # number of overall MSHR misses
system.cpu.dcache.demand_mshr_miss_latency::.cpu.data   2741361000                       # number of demand (read+write) MSHR miss cycles
system.cpu.dcache.demand_mshr_miss_latency::total   2741361000                       # number of demand (read+write) MSHR miss cycles
system.cpu.dcache.overall_mshr_miss_latency::.cpu.data   2752865000                       # number of overall MSHR miss cycles
system.cpu.dcache.overall_mshr_miss_latency::total   2752865000                       # number of overall MSHR miss cycles
system.cpu.dcache.demand_mshr_miss_rate::.cpu.data     0.002221                       # mshr miss rate for demand accesses
system.cpu.dcache.demand_mshr_miss_rate::total     0.002221                       # mshr miss rate for demand accesses
system.cpu.dcache.overall_mshr_miss_rate::.cpu.data     0.002224                       # mshr miss rate for overall accesses
system.cpu.dcache.overall_mshr_miss_rate::total     0.002224                       # mshr miss rate for overall accesses
system.cpu.dcache.demand_avg_mshr_miss_latency::.cpu.data 28111.909840                       # average overall mshr miss latency
system.cpu.dcache.demand_avg_mshr_miss_latency::total 28111.909840                       # average overall mshr miss latency
system.cpu.dcache.overall_avg_mshr_miss_latency::.cpu.data 28185.369100                       # average overall mshr miss latency
system.cpu.dcache.overall_avg_mshr_miss_latency::total 28185.369100                       # average overall mshr miss latency
system.cpu.dcache.replacements                  97159                       # number of replacements
system.cpu.dcache.ReadReq_hits::.cpu.data     37561019                       # number of ReadReq hits
system.cpu.dcache.ReadReq_hits::total        37561019                       # number of ReadReq hits
system.cpu.dcache.ReadReq_misses::.cpu.data        26820                       # number of ReadReq misses
system.cpu.dcache.ReadReq_misses::total         26820                       # number of ReadReq misses
system.cpu.dcache.ReadReq_miss_latency::.cpu.data    777491000                       # number of ReadReq miss cycles
system.cpu.dcache.ReadReq_miss_latency::total    777491000                       # number of ReadReq miss cycles
system.cpu.dcache.ReadReq_accesses::.cpu.data     37587839                       # number of ReadReq accesses(hits+misses)
system.cpu.dcache.ReadReq_accesses::total     37587839                       # number of ReadReq accesses(hits+misses)
system.cpu.dcache.ReadReq_miss_rate::.cpu.data     0.000714                       # miss rate for ReadReq accesses
system.cpu.dcache.ReadReq_miss_rate::total     0.000714                       # miss rate for ReadReq accesses
system.cpu.dcache.ReadReq_avg_miss_latency::.cpu.data 28989.224459                       # average ReadReq miss latency
system.cpu.dcache.ReadReq_avg_miss_latency::total 28989.224459                       # average ReadReq miss latency
system.cpu.dcache.ReadReq_mshr_hits::.cpu.data          906                       # number of ReadReq MSHR hits
system.cpu.dcache.ReadReq_mshr_hits::total          906                       # number of ReadReq MSHR hits
system.cpu.dcache.ReadReq_mshr_misses::.cpu.data        25914                       # number of ReadReq MSHR misses
system.cpu.dcache.ReadReq_mshr_misses::total        25914                       # number of ReadReq MSHR misses
system.cpu.dcache.ReadReq_mshr_miss_latency::.cpu.data    695364000                       # number of ReadReq MSHR miss cycles
system.cpu.dcache.ReadReq_mshr_miss_latency::total    695364000                       # number of ReadReq MSHR miss cycles
system.cpu.dcache.ReadReq_mshr_miss_rate::.cpu.data     0.000689                       # mshr miss rate for ReadReq accesses
system.cpu.dcache.ReadReq_mshr_miss_rate::total     0.000689                       # mshr miss rate for ReadReq accesses
system.cpu.dcache.ReadReq_avg_mshr_miss_latency::.cpu.data 26833.526279                       # average ReadReq mshr miss latency
system.cpu.dcache.ReadReq_avg_mshr_miss_latency::total 26833.526279                       # average ReadReq mshr miss latency
system.cpu.dcache.WriteReq_hits::.cpu.data      6244287                       # number of WriteReq hits
system.cpu.dcache.WriteReq_hits::total        6244287                       # number of WriteReq hits
system.cpu.dcache.WriteReq_misses::.cpu.data        76564                       # number of WriteReq misses
system.cpu.dcache.WriteReq_misses::total        76564                       # number of WriteReq misses
system.cpu.dcache.WriteReq_miss_latency::.cpu.data   2457276000                       # number of WriteReq miss cycles
system.cpu.dcache.WriteReq_miss_latency::total   2457276000                       # number of WriteReq miss cycles
system.cpu.dcache.WriteReq_accesses::.cpu.data      6320851                       # number of WriteReq accesses(hits+misses)
system.cpu.dcache.WriteReq_accesses::total      6320851                       # number of WriteReq accesses(hits+misses)
system.cpu.dcache.WriteReq_miss_rate::.cpu.data     0.012113                       # miss rate for WriteReq accesses
system.cpu.dcache.WriteReq_miss_rate::total     0.012113                       # miss rate for WriteReq accesses
system.cpu.dcache.WriteReq_avg_miss_latency::.cpu.data 32094.404681                       # average WriteReq miss latency
system.cpu.dcache.WriteReq_avg_miss_latency::total 32094.404681                       # average WriteReq miss latency
system.cpu.dcache.WriteReq_mshr_hits::.cpu.data         4962                       # number of WriteReq MSHR hits
system.cpu.dcache.WriteReq_mshr_hits::total         4962                       # number of WriteReq MSHR hits
system.cpu.dcache.WriteReq_mshr_misses::.cpu.data        71602                       # number of WriteReq MSHR misses
system.cpu.dcache.WriteReq_mshr_misses::total        71602                       # number of WriteReq MSHR misses
system.cpu.dcache.WriteReq_mshr_miss_latency::.cpu.data   2045997000                       # number of WriteReq MSHR miss cycles
system.cpu.dcache.WriteReq_mshr_miss_latency::total   2045997000                       # number of WriteReq MSHR miss cycles
system.cpu.dcache.WriteReq_mshr_miss_rate::.cpu.data     0.011328                       # mshr miss rate for WriteReq accesses
system.cpu.dcache.WriteReq_mshr_miss_rate::total     0.011328                       # mshr miss rate for WriteReq accesses
system.cpu.dcache.WriteReq_avg_mshr_miss_latency::.cpu.data 28574.578922                       # average WriteReq mshr miss latency
system.cpu.dcache.WriteReq_avg_mshr_miss_latency::total 28574.578922                       # average WriteReq mshr miss latency
system.cpu.dcache.SoftPFReq_hits::.cpu.data         8547                       # number of SoftPFReq hits
system.cpu.dcache.SoftPFReq_hits::total          8547                       # number of SoftPFReq hits
system.cpu.dcache.SoftPFReq_misses::.cpu.data          167                       # number of SoftPFReq misses
system.cpu.dcache.SoftPFReq_misses::total          167                       # number of SoftPFReq misses
system.cpu.dcache.SoftPFReq_accesses::.cpu.data         8714                       # number of SoftPFReq accesses(hits+misses)
system.cpu.dcache.SoftPFReq_accesses::total         8714                       # number of SoftPFReq accesses(hits+misses)
system.cpu.dcache.SoftPFReq_miss_rate::.cpu.data     0.019165                       # miss rate for SoftPFReq accesses
system.cpu.dcache.SoftPFReq_miss_rate::total     0.019165                       # miss rate for SoftPFReq accesses
system.cpu.dcache.SoftPFReq_mshr_misses::.cpu.data          154                       # number of SoftPFReq MSHR misses
system.cpu.dcache.SoftPFReq_mshr_misses::total          154                       # number of SoftPFReq MSHR misses
system.cpu.dcache.SoftPFReq_mshr_miss_latency::.cpu.data     11504000                       # number of SoftPFReq MSHR miss cycles
system.cpu.dcache.SoftPFReq_mshr_miss_latency::total     11504000                       # number of SoftPFReq MSHR miss cycles
system.cpu.dcache.SoftPFReq_mshr_miss_rate::.cpu.data     0.017673                       # mshr miss rate for SoftPFReq accesses
system.cpu.dcache.SoftPFReq_mshr_miss_rate::total     0.017673                       # mshr miss rate for SoftPFReq accesses
system.cpu.dcache.SoftPFReq_avg_mshr_miss_latency::.cpu.data 74701.298701                       # average SoftPFReq mshr miss latency
system.cpu.dcache.SoftPFReq_avg_mshr_miss_latency::total 74701.298701                       # average SoftPFReq mshr miss latency
system.cpu.dcache.LoadLockedReq_hits::.cpu.data          165                       # number of LoadLockedReq hits
system.cpu.dcache.LoadLockedReq_hits::total          165                       # number of LoadLockedReq hits
system.cpu.dcache.LoadLockedReq_misses::.cpu.data            1                       # number of LoadLockedReq misses
system.cpu.dcache.LoadLockedReq_misses::total            1                       # number of LoadLockedReq misses
system.cpu.dcache.LoadLockedReq_miss_latency::.cpu.data       109000                       # number of LoadLockedReq miss cycles
system.cpu.dcache.LoadLockedReq_miss_latency::total       109000                       # number of LoadLockedReq miss cycles
system.cpu.dcache.LoadLockedReq_accesses::.cpu.data          166                       # number of LoadLockedReq accesses(hits+misses)
system.cpu.dcache.LoadLockedReq_accesses::total          166                       # number of LoadLockedReq accesses(hits+misses)
system.cpu.dcache.LoadLockedReq_miss_rate::.cpu.data     0.006024                       # miss rate for LoadLockedReq accesses
system.cpu.dcache.LoadLockedReq_miss_rate::total     0.006024                       # miss rate for LoadLockedReq accesses
system.cpu.dcache.LoadLockedReq_avg_miss_latency::.cpu.data       109000                       # average LoadLockedReq miss latency
system.cpu.dcache.LoadLockedReq_avg_miss_latency::total       109000                       # average LoadLockedReq miss latency
system.cpu.dcache.LoadLockedReq_mshr_misses::.cpu.data            1                       # number of LoadLockedReq MSHR misses
system.cpu.dcache.LoadLockedReq_mshr_misses::total            1                       # number of LoadLockedReq MSHR misses
system.cpu.dcache.LoadLockedReq_mshr_miss_latency::.cpu.data       107000                       # number of LoadLockedReq MSHR miss cycles
system.cpu.dcache.LoadLockedReq_mshr_miss_latency::total       107000                       # number of LoadLockedReq MSHR miss cycles
system.cpu.dcache.LoadLockedReq_mshr_miss_rate::.cpu.data     0.006024                       # mshr miss rate for LoadLockedReq accesses
system.cpu.dcache.LoadLockedReq_mshr_miss_rate::total     0.006024                       # mshr miss rate for LoadLockedReq accesses
system.cpu.dcache.LoadLockedReq_avg_mshr_miss_latency::.cpu.data       107000                       # average LoadLockedReq mshr miss latency
system.cpu.dcache.LoadLockedReq_avg_mshr_miss_latency::total       107000                       # average LoadLockedReq mshr miss latency
system.cpu.dcache.StoreCondReq_hits::.cpu.data          166                       # number of StoreCondReq hits
system.cpu.dcache.StoreCondReq_hits::total          166                       # number of StoreCondReq hits
system.cpu.dcache.StoreCondReq_accesses::.cpu.data          166                       # number of StoreCondReq accesses(hits+misses)
system.cpu.dcache.StoreCondReq_accesses::total          166                       # number of StoreCondReq accesses(hits+misses)
system.cpu.dcache.tags.pwrStateResidencyTicks::UNDEFINED 118929970000                       # Cumulative time (in ticks) in various power states
system.cpu.dcache.tags.tagsinuse           509.652089                       # Cycle average of tags in use
system.cpu.dcache.tags.total_refs            43911855                       # Total number of references to valid blocks.
system.cpu.dcache.tags.sampled_refs             97671                       # Sample count of references to valid blocks.
system.cpu.dcache.tags.avg_refs            449.589489                       # Average number of references to valid blocks.
system.cpu.dcache.tags.warmup_cycle            223000                       # Cycle when the warmup percentage was hit.
system.cpu.dcache.tags.occ_blocks::.cpu.data   509.652089                       # Average occupied blocks per requestor
system.cpu.dcache.tags.occ_percent::.cpu.data     0.995414                       # Average percentage of cache occupancy
system.cpu.dcache.tags.occ_percent::total     0.995414                       # Average percentage of cache occupancy
system.cpu.dcache.tags.occ_task_id_blocks::1024          512                       # Occupied blocks per task id
system.cpu.dcache.tags.age_task_id_blocks_1024::0            8                       # Occupied blocks per task id
system.cpu.dcache.tags.age_task_id_blocks_1024::1           72                       # Occupied blocks per task id
system.cpu.dcache.tags.age_task_id_blocks_1024::2          378                       # Occupied blocks per task id
system.cpu.dcache.tags.age_task_id_blocks_1024::3           39                       # Occupied blocks per task id
system.cpu.dcache.tags.age_task_id_blocks_1024::4           15                       # Occupied blocks per task id
system.cpu.dcache.tags.occ_task_id_percent::1024            1                       # Percentage of cache occupancy per task id
system.cpu.dcache.tags.tag_accesses          87933143                       # Number of tag accesses
system.cpu.dcache.tags.data_accesses         87933143                       # Number of data accesses
system.cpu.itb.walker.pwrStateResidencyTicks::UNDEFINED 118929970000                       # Cumulative time (in ticks) in various power states
system.cpu.itb.stage2_mmu.stage2_tlb.walker.pwrStateResidencyTicks::UNDEFINED 118929970000                       # Cumulative time (in ticks) in various power states

---------- End Simulation Statistics   ----------
