
---------- Begin Simulation Statistics ----------
final_tick                               168359410000                       # Number of ticks from beginning of simulation (restored from checkpoints and never reset)
host_inst_rate                                 258769                       # Simulator instruction rate (inst/s)
host_mem_usage                                 683960                       # Number of bytes of host memory used
host_op_rate                                   259277                       # Simulator op (including micro ops) rate (op/s)
host_seconds                                   386.44                       # Real time elapsed on the host
host_tick_rate                              435662122                       # Simulator tick rate (ticks/s)
sim_freq                                 1000000000000                       # Frequency of simulated ticks
sim_insts                                   100000001                       # Number of instructions simulated
sim_ops                                     100196363                       # Number of ops (including micro ops) simulated
sim_seconds                                  0.168359                       # Number of seconds simulated
sim_ticks                                168359410000                       # Number of ticks simulated
system.cpu.branchPred.BTBCorrect                    0                       # Number of correct BTB predictions (this stat may not work properly.
system.cpu.branchPred.BTBHitPct             99.694363                       # BTB Hit Percentage
system.cpu.branchPred.BTBHits                 2095414                       # Number of BTB hits
system.cpu.branchPred.BTBLookups              2101838                       # Number of BTB lookups
system.cpu.branchPred.RASInCorrect                  5                       # Number of incorrect RAS predictions.
system.cpu.branchPred.condIncorrect             81341                       # Number of conditional branches incorrect
system.cpu.branchPred.condPredicted           3727740                       # Number of conditional branches predicted
system.cpu.branchPred.indirectHits                291                       # Number of indirect target hits.
system.cpu.branchPred.indirectLookups             808                       # Number of indirect predictor lookups.
system.cpu.branchPred.indirectMisses              517                       # Number of indirect misses.
system.cpu.branchPred.lookups                 4477827                       # Number of BP lookups
system.cpu.branchPred.usedRAS                   65338                       # Number of times the RAS was used to get a target.
system.cpu.branchPredindirectMispredicted          171                       # Number of mispredicted indirect branches.
system.cpu.committedInsts                   100000001                       # Number of instructions committed
system.cpu.committedOps                     100196363                       # Number of ops (including micro ops) committed
system.cpu.cpi                               1.683594                       # CPI: cycles per instruction
system.cpu.discardedOps                        190726                       # Number of ops (including micro ops) which were discarded before commit
system.cpu.dtb.accesses                             0                       # DTB accesses
system.cpu.dtb.align_faults                         0                       # Number of TLB faults due to alignment restrictions
system.cpu.dtb.domain_faults                        0                       # Number of TLB faults due to domain restrictions
system.cpu.dtb.flush_entries                        0                       # Number of entries that have been flushed from TLB
system.cpu.dtb.flush_tlb                            0                       # Number of times complete TLB was flushed
system.cpu.dtb.flush_tlb_asid                       0                       # Number of times TLB was flushed by ASID
system.cpu.dtb.flush_tlb_mva                        0                       # Number of times TLB was flushed by MVA
system.cpu.dtb.flush_tlb_mva_asid                   0                       # Number of times TLB was flushed by MVA & ASID
system.cpu.dtb.hits                                 0                       # DTB hits
system.cpu.dtb.inst_accesses                        0                       # ITB inst accesses
system.cpu.dtb.inst_hits                            0                       # ITB inst hits
system.cpu.dtb.inst_misses                          0                       # ITB inst misses
system.cpu.dtb.misses                               0                       # DTB misses
system.cpu.dtb.perms_faults                         0                       # Number of TLB faults due to permissions restrictions
system.cpu.dtb.prefetch_faults                      0                       # Number of TLB faults due to prefetch
system.cpu.dtb.read_accesses                        0                       # DTB read accesses
system.cpu.dtb.read_hits                            0                       # DTB read hits
system.cpu.dtb.read_misses                          0                       # DTB read misses
system.cpu.dtb.stage2_mmu.stage2_tlb.accesses            0                       # DTB accesses
system.cpu.dtb.stage2_mmu.stage2_tlb.align_faults            0                       # Number of TLB faults due to alignment restrictions
system.cpu.dtb.stage2_mmu.stage2_tlb.domain_faults            0                       # Number of TLB faults due to domain restrictions
system.cpu.dtb.stage2_mmu.stage2_tlb.flush_entries            0                       # Number of entries that have been flushed from TLB
system.cpu.dtb.stage2_mmu.stage2_tlb.flush_tlb            0                       # Number of times complete TLB was flushed
system.cpu.dtb.stage2_mmu.stage2_tlb.flush_tlb_asid            0                       # Number of times TLB was flushed by ASID
system.cpu.dtb.stage2_mmu.stage2_tlb.flush_tlb_mva            0                       # Number of times TLB was flushed by MVA
system.cpu.dtb.stage2_mmu.stage2_tlb.flush_tlb_mva_asid            0                       # Number of times TLB was flushed by MVA & ASID
system.cpu.dtb.stage2_mmu.stage2_tlb.hits            0                       # DTB hits
system.cpu.dtb.stage2_mmu.stage2_tlb.inst_accesses            0                       # ITB inst accesses
system.cpu.dtb.stage2_mmu.stage2_tlb.inst_hits            0                       # ITB inst hits
system.cpu.dtb.stage2_mmu.stage2_tlb.inst_misses            0                       # ITB inst misses
system.cpu.dtb.stage2_mmu.stage2_tlb.misses            0                       # DTB misses
system.cpu.dtb.stage2_mmu.stage2_tlb.perms_faults            0                       # Number of TLB faults due to permissions restrictions
system.cpu.dtb.stage2_mmu.stage2_tlb.prefetch_faults            0                       # Number of TLB faults due to prefetch
system.cpu.dtb.stage2_mmu.stage2_tlb.read_accesses            0                       # DTB read accesses
system.cpu.dtb.stage2_mmu.stage2_tlb.read_hits            0                       # DTB read hits
system.cpu.dtb.stage2_mmu.stage2_tlb.read_misses            0                       # DTB read misses
system.cpu.dtb.stage2_mmu.stage2_tlb.walker.walkRequestOrigin_Requested::Data            0                       # Table walker requests started/completed, data/inst
system.cpu.dtb.stage2_mmu.stage2_tlb.walker.walkRequestOrigin_Requested::Inst            0                       # Table walker requests started/completed, data/inst
system.cpu.dtb.stage2_mmu.stage2_tlb.walker.walkRequestOrigin_Requested::total            0                       # Table walker requests started/completed, data/inst
system.cpu.dtb.stage2_mmu.stage2_tlb.walker.walkRequestOrigin_Completed::Data            0                       # Table walker requests started/completed, data/inst
system.cpu.dtb.stage2_mmu.stage2_tlb.walker.walkRequestOrigin_Completed::Inst            0                       # Table walker requests started/completed, data/inst
system.cpu.dtb.stage2_mmu.stage2_tlb.walker.walkRequestOrigin_Completed::total            0                       # Table walker requests started/completed, data/inst
system.cpu.dtb.stage2_mmu.stage2_tlb.walker.walkRequestOrigin::total            0                       # Table walker requests started/completed, data/inst
system.cpu.dtb.stage2_mmu.stage2_tlb.walker.walks            0                       # Table walker walks requested
system.cpu.dtb.stage2_mmu.stage2_tlb.write_accesses            0                       # DTB write accesses
system.cpu.dtb.stage2_mmu.stage2_tlb.write_hits            0                       # DTB write hits
system.cpu.dtb.stage2_mmu.stage2_tlb.write_misses            0                       # DTB write misses
system.cpu.dtb.walker.walkRequestOrigin_Requested::Data            0                       # Table walker requests started/completed, data/inst
system.cpu.dtb.walker.walkRequestOrigin_Requested::Inst            0                       # Table walker requests started/completed, data/inst
system.cpu.dtb.walker.walkRequestOrigin_Requested::total            0                       # Table walker requests started/completed, data/inst
system.cpu.dtb.walker.walkRequestOrigin_Completed::Data            0                       # Table walker requests started/completed, data/inst
system.cpu.dtb.walker.walkRequestOrigin_Completed::Inst            0                       # Table walker requests started/completed, data/inst
system.cpu.dtb.walker.walkRequestOrigin_Completed::total            0                       # Table walker requests started/completed, data/inst
system.cpu.dtb.walker.walkRequestOrigin::total            0                       # Table walker requests started/completed, data/inst
system.cpu.dtb.walker.walks                         0                       # Table walker walks requested
system.cpu.dtb.write_accesses                       0                       # DTB write accesses
system.cpu.dtb.write_hits                           0                       # DTB write hits
system.cpu.dtb.write_misses                         0                       # DTB write misses
system.cpu.fetch2.amo_instructions                  0                       # Number of memory atomic instructions successfully decoded
system.cpu.fetch2.fp_instructions                   0                       # Number of floating point instructions successfully decoded
system.cpu.fetch2.int_instructions           42610115                       # Number of integer instructions successfully decoded
system.cpu.fetch2.load_instructions          43402396                       # Number of memory load instructions successfully decoded
system.cpu.fetch2.store_instructions         11001434                       # Number of memory store instructions successfully decoded
system.cpu.fetch2.vec_instructions                  0                       # Number of SIMD instructions successfully decoded
system.cpu.idleCycles                        35448038                       # Total number of cycles that the object has spent stopped
system.cpu.ipc                               0.593967                       # IPC: instructions per cycle
system.cpu.itb.accesses                             0                       # DTB accesses
system.cpu.itb.align_faults                         0                       # Number of TLB faults due to alignment restrictions
system.cpu.itb.domain_faults                        0                       # Number of TLB faults due to domain restrictions
system.cpu.itb.flush_entries                        0                       # Number of entries that have been flushed from TLB
system.cpu.itb.flush_tlb                            0                       # Number of times complete TLB was flushed
system.cpu.itb.flush_tlb_asid                       0                       # Number of times TLB was flushed by ASID
system.cpu.itb.flush_tlb_mva                        0                       # Number of times TLB was flushed by MVA
system.cpu.itb.flush_tlb_mva_asid                   0                       # Number of times TLB was flushed by MVA & ASID
system.cpu.itb.hits                                 0                       # DTB hits
system.cpu.itb.inst_accesses                        0                       # ITB inst accesses
system.cpu.itb.inst_hits                            0                       # ITB inst hits
system.cpu.itb.inst_misses                          0                       # ITB inst misses
system.cpu.itb.misses                               0                       # DTB misses
system.cpu.itb.perms_faults                         0                       # Number of TLB faults due to permissions restrictions
system.cpu.itb.prefetch_faults                      0                       # Number of TLB faults due to prefetch
system.cpu.itb.read_accesses                        0                       # DTB read accesses
system.cpu.itb.read_hits                            0                       # DTB read hits
system.cpu.itb.read_misses                          0                       # DTB read misses
system.cpu.itb.stage2_mmu.stage2_tlb.accesses            0                       # DTB accesses
system.cpu.itb.stage2_mmu.stage2_tlb.align_faults            0                       # Number of TLB faults due to alignment restrictions
system.cpu.itb.stage2_mmu.stage2_tlb.domain_faults            0                       # Number of TLB faults due to domain restrictions
system.cpu.itb.stage2_mmu.stage2_tlb.flush_entries            0                       # Number of entries that have been flushed from TLB
system.cpu.itb.stage2_mmu.stage2_tlb.flush_tlb            0                       # Number of times complete TLB was flushed
system.cpu.itb.stage2_mmu.stage2_tlb.flush_tlb_asid            0                       # Number of times TLB was flushed by ASID
system.cpu.itb.stage2_mmu.stage2_tlb.flush_tlb_mva            0                       # Number of times TLB was flushed by MVA
system.cpu.itb.stage2_mmu.stage2_tlb.flush_tlb_mva_asid            0                       # Number of times TLB was flushed by MVA & ASID
system.cpu.itb.stage2_mmu.stage2_tlb.hits            0                       # DTB hits
system.cpu.itb.stage2_mmu.stage2_tlb.inst_accesses            0                       # ITB inst accesses
system.cpu.itb.stage2_mmu.stage2_tlb.inst_hits            0                       # ITB inst hits
system.cpu.itb.stage2_mmu.stage2_tlb.inst_misses            0                       # ITB inst misses
system.cpu.itb.stage2_mmu.stage2_tlb.misses            0                       # DTB misses
system.cpu.itb.stage2_mmu.stage2_tlb.perms_faults            0                       # Number of TLB faults due to permissions restrictions
system.cpu.itb.stage2_mmu.stage2_tlb.prefetch_faults            0                       # Number of TLB faults due to prefetch
system.cpu.itb.stage2_mmu.stage2_tlb.read_accesses            0                       # DTB read accesses
system.cpu.itb.stage2_mmu.stage2_tlb.read_hits            0                       # DTB read hits
system.cpu.itb.stage2_mmu.stage2_tlb.read_misses            0                       # DTB read misses
system.cpu.itb.stage2_mmu.stage2_tlb.walker.walkRequestOrigin_Requested::Data            0                       # Table walker requests started/completed, data/inst
system.cpu.itb.stage2_mmu.stage2_tlb.walker.walkRequestOrigin_Requested::Inst            0                       # Table walker requests started/completed, data/inst
system.cpu.itb.stage2_mmu.stage2_tlb.walker.walkRequestOrigin_Requested::total            0                       # Table walker requests started/completed, data/inst
system.cpu.itb.stage2_mmu.stage2_tlb.walker.walkRequestOrigin_Completed::Data            0                       # Table walker requests started/completed, data/inst
system.cpu.itb.stage2_mmu.stage2_tlb.walker.walkRequestOrigin_Completed::Inst            0                       # Table walker requests started/completed, data/inst
system.cpu.itb.stage2_mmu.stage2_tlb.walker.walkRequestOrigin_Completed::total            0                       # Table walker requests started/completed, data/inst
system.cpu.itb.stage2_mmu.stage2_tlb.walker.walkRequestOrigin::total            0                       # Table walker requests started/completed, data/inst
system.cpu.itb.stage2_mmu.stage2_tlb.walker.walks            0                       # Table walker walks requested
system.cpu.itb.stage2_mmu.stage2_tlb.write_accesses            0                       # DTB write accesses
system.cpu.itb.stage2_mmu.stage2_tlb.write_hits            0                       # DTB write hits
system.cpu.itb.stage2_mmu.stage2_tlb.write_misses            0                       # DTB write misses
system.cpu.itb.walker.walkRequestOrigin_Requested::Data            0                       # Table walker requests started/completed, data/inst
system.cpu.itb.walker.walkRequestOrigin_Requested::Inst            0                       # Table walker requests started/completed, data/inst
system.cpu.itb.walker.walkRequestOrigin_Requested::total            0                       # Table walker requests started/completed, data/inst
system.cpu.itb.walker.walkRequestOrigin_Completed::Data            0                       # Table walker requests started/completed, data/inst
system.cpu.itb.walker.walkRequestOrigin_Completed::Inst            0                       # Table walker requests started/completed, data/inst
system.cpu.itb.walker.walkRequestOrigin_Completed::total            0                       # Table walker requests started/completed, data/inst
system.cpu.itb.walker.walkRequestOrigin::total            0                       # Table walker requests started/completed, data/inst
system.cpu.itb.walker.walks                         0                       # Table walker walks requested
system.cpu.itb.write_accesses                       0                       # DTB write accesses
system.cpu.itb.write_hits                           0                       # DTB write hits
system.cpu.itb.write_misses                         0                       # DTB write misses
system.cpu.numCycles                        168359410                       # number of cpu cycles simulated
system.cpu.numFetchSuspends                         0                       # Number of times Execute suspended instruction fetching
system.cpu.numWorkItemsCompleted                    0                       # number of work items this cpu completed
system.cpu.numWorkItemsStarted                      0                       # number of work items this cpu started
system.cpu.op_class_0::No_OpClass                   0      0.00%      0.00% # Class of committed instruction
system.cpu.op_class_0::IntAlu                46531400     46.44%     46.44% # Class of committed instruction
system.cpu.op_class_0::IntMult                  20720      0.02%     46.46% # Class of committed instruction
system.cpu.op_class_0::IntDiv                       0      0.00%     46.46% # Class of committed instruction
system.cpu.op_class_0::FloatAdd                     0      0.00%     46.46% # Class of committed instruction
system.cpu.op_class_0::FloatCmp                     0      0.00%     46.46% # Class of committed instruction
system.cpu.op_class_0::FloatCvt                     0      0.00%     46.46% # Class of committed instruction
system.cpu.op_class_0::FloatMult                    0      0.00%     46.46% # Class of committed instruction
system.cpu.op_class_0::FloatMultAcc                 0      0.00%     46.46% # Class of committed instruction
system.cpu.op_class_0::FloatDiv                     0      0.00%     46.46% # Class of committed instruction
system.cpu.op_class_0::FloatMisc                    0      0.00%     46.46% # Class of committed instruction
system.cpu.op_class_0::FloatSqrt                    0      0.00%     46.46% # Class of committed instruction
system.cpu.op_class_0::SimdAdd                      0      0.00%     46.46% # Class of committed instruction
system.cpu.op_class_0::SimdAddAcc                   0      0.00%     46.46% # Class of committed instruction
system.cpu.op_class_0::SimdAlu                      0      0.00%     46.46% # Class of committed instruction
system.cpu.op_class_0::SimdCmp                      0      0.00%     46.46% # Class of committed instruction
system.cpu.op_class_0::SimdCvt                      0      0.00%     46.46% # Class of committed instruction
system.cpu.op_class_0::SimdMisc                     0      0.00%     46.46% # Class of committed instruction
system.cpu.op_class_0::SimdMult                     0      0.00%     46.46% # Class of committed instruction
system.cpu.op_class_0::SimdMultAcc                  0      0.00%     46.46% # Class of committed instruction
system.cpu.op_class_0::SimdShift                    0      0.00%     46.46% # Class of committed instruction
system.cpu.op_class_0::SimdShiftAcc                 0      0.00%     46.46% # Class of committed instruction
system.cpu.op_class_0::SimdDiv                      0      0.00%     46.46% # Class of committed instruction
system.cpu.op_class_0::SimdSqrt                     0      0.00%     46.46% # Class of committed instruction
system.cpu.op_class_0::SimdFloatAdd                 0      0.00%     46.46% # Class of committed instruction
system.cpu.op_class_0::SimdFloatAlu                 0      0.00%     46.46% # Class of committed instruction
system.cpu.op_class_0::SimdFloatCmp                 0      0.00%     46.46% # Class of committed instruction
system.cpu.op_class_0::SimdFloatCvt                 0      0.00%     46.46% # Class of committed instruction
system.cpu.op_class_0::SimdFloatDiv                 0      0.00%     46.46% # Class of committed instruction
system.cpu.op_class_0::SimdFloatMisc               18      0.00%     46.46% # Class of committed instruction
system.cpu.op_class_0::SimdFloatMult                0      0.00%     46.46% # Class of committed instruction
system.cpu.op_class_0::SimdFloatMultAcc             0      0.00%     46.46% # Class of committed instruction
system.cpu.op_class_0::SimdFloatSqrt                0      0.00%     46.46% # Class of committed instruction
system.cpu.op_class_0::SimdReduceAdd                0      0.00%     46.46% # Class of committed instruction
system.cpu.op_class_0::SimdReduceAlu                0      0.00%     46.46% # Class of committed instruction
system.cpu.op_class_0::SimdReduceCmp                0      0.00%     46.46% # Class of committed instruction
system.cpu.op_class_0::SimdFloatReduceAdd            0      0.00%     46.46% # Class of committed instruction
system.cpu.op_class_0::SimdFloatReduceCmp            0      0.00%     46.46% # Class of committed instruction
system.cpu.op_class_0::SimdAes                      0      0.00%     46.46% # Class of committed instruction
system.cpu.op_class_0::SimdAesMix                   0      0.00%     46.46% # Class of committed instruction
system.cpu.op_class_0::SimdSha1Hash                 0      0.00%     46.46% # Class of committed instruction
system.cpu.op_class_0::SimdSha1Hash2                0      0.00%     46.46% # Class of committed instruction
system.cpu.op_class_0::SimdSha256Hash               0      0.00%     46.46% # Class of committed instruction
system.cpu.op_class_0::SimdSha256Hash2              0      0.00%     46.46% # Class of committed instruction
system.cpu.op_class_0::SimdShaSigma2                0      0.00%     46.46% # Class of committed instruction
system.cpu.op_class_0::SimdShaSigma3                0      0.00%     46.46% # Class of committed instruction
system.cpu.op_class_0::SimdPredAlu                  0      0.00%     46.46% # Class of committed instruction
system.cpu.op_class_0::MemRead               42693601     42.61%     89.07% # Class of committed instruction
system.cpu.op_class_0::MemWrite              10950624     10.93%    100.00% # Class of committed instruction
system.cpu.op_class_0::FloatMemRead                 0      0.00%    100.00% # Class of committed instruction
system.cpu.op_class_0::FloatMemWrite                0      0.00%    100.00% # Class of committed instruction
system.cpu.op_class_0::IprAccess                    0      0.00%    100.00% # Class of committed instruction
system.cpu.op_class_0::InstPrefetch                 0      0.00%    100.00% # Class of committed instruction
system.cpu.op_class_0::total                100196363                       # Class of committed instruction
system.cpu.tickCycles                       132911372                       # Number of cycles that the object actually ticked
system.cpu.workload.numSyscalls                    84                       # Number of system calls
system.membus.snoop_filter.hit_multi_requests            0                       # Number of requests hitting in the snoop filter with multiple (>1) holders of the requested data.
system.membus.snoop_filter.hit_multi_snoops            0                       # Number of snoops hitting in the snoop filter with multiple (>1) holders of the requested data.
system.membus.snoop_filter.hit_single_requests       271429                       # Number of requests hitting in the snoop filter with a single holder of the requested data.
system.membus.snoop_filter.hit_single_snoops            0                       # Number of snoops hitting in the snoop filter with a single holder of the requested data.
system.membus.snoop_filter.tot_requests        551485                       # Total number of requests made to the snoop filter.
system.membus.snoop_filter.tot_snoops               0                       # Total number of snoops made to the snoop filter.
system.tol2bus.snoop_filter.hit_multi_requests          237                       # Number of requests hitting in the snoop filter with multiple (>1) holders of the requested data.
system.tol2bus.snoop_filter.hit_multi_snoops            4                       # Number of snoops hitting in the snoop filter with multiple (>1) holders of the requested data.
system.tol2bus.snoop_filter.hit_single_requests       874872                       # Number of requests hitting in the snoop filter with a single holder of the requested data.
system.tol2bus.snoop_filter.hit_single_snoops          705                       # Number of snoops hitting in the snoop filter with a single holder of the requested data.
system.tol2bus.snoop_filter.tot_requests      1750700                       # Total number of requests made to the snoop filter.
system.tol2bus.snoop_filter.tot_snoops            709                       # Total number of snoops made to the snoop filter.
system.membus.pwrStateResidencyTicks::UNDEFINED 168359410000                       # Cumulative time (in ticks) in various power states
system.membus.trans_dist::ReadResp             109318                       # Transaction distribution
system.membus.trans_dist::WritebackDirty       193062                       # Transaction distribution
system.membus.trans_dist::CleanEvict            78357                       # Transaction distribution
system.membus.trans_dist::ReadExReq            170748                       # Transaction distribution
system.membus.trans_dist::ReadExResp           170748                       # Transaction distribution
system.membus.trans_dist::ReadSharedReq        109318                       # Transaction distribution
system.membus.pkt_count_system.l2.mem_side::system.mem_ctrls.port       831551                       # Packet count per connected master and slave (bytes)
system.membus.pkt_count::total                 831551                       # Packet count per connected master and slave (bytes)
system.membus.pkt_size_system.l2.mem_side::system.mem_ctrls.port     30280192                       # Cumulative packet size per connected master and slave (bytes)
system.membus.pkt_size::total                30280192                       # Cumulative packet size per connected master and slave (bytes)
system.membus.snoops                                0                       # Total snoops (count)
system.membus.snoopTraffic                          0                       # Total snoop traffic (bytes)
system.membus.snoop_fanout::samples            280066                       # Request fanout histogram
system.membus.snoop_fanout::mean                    0                       # Request fanout histogram
system.membus.snoop_fanout::stdev                   0                       # Request fanout histogram
system.membus.snoop_fanout::underflows              0      0.00%      0.00% # Request fanout histogram
system.membus.snoop_fanout::0                  280066    100.00%    100.00% # Request fanout histogram
system.membus.snoop_fanout::1                       0      0.00%    100.00% # Request fanout histogram
system.membus.snoop_fanout::overflows               0      0.00%    100.00% # Request fanout histogram
system.membus.snoop_fanout::min_value               0                       # Request fanout histogram
system.membus.snoop_fanout::max_value               0                       # Request fanout histogram
system.membus.snoop_fanout::total              280066                       # Request fanout histogram
system.membus.respLayer1.occupancy         1523718250                       # Layer occupancy (ticks)
system.membus.respLayer1.utilization              0.9                       # Layer utilization (%)
system.membus.reqLayer0.occupancy          1323733000                       # Layer occupancy (ticks)
system.membus.reqLayer0.utilization               0.8                       # Layer utilization (%)
system.tol2bus.pwrStateResidencyTicks::UNDEFINED 168359410000                       # Cumulative time (in ticks) in various power states
system.tol2bus.trans_dist::ReadResp            534508                       # Transaction distribution
system.tol2bus.trans_dist::WritebackDirty       970979                       # Transaction distribution
system.tol2bus.trans_dist::WritebackClean          302                       # Transaction distribution
system.tol2bus.trans_dist::CleanEvict          175716                       # Transaction distribution
system.tol2bus.trans_dist::ReadExReq           341321                       # Transaction distribution
system.tol2bus.trans_dist::ReadExResp          341320                       # Transaction distribution
system.tol2bus.trans_dist::ReadCleanReq           747                       # Transaction distribution
system.tol2bus.trans_dist::ReadSharedReq       533761                       # Transaction distribution
system.tol2bus.pkt_count_system.cpu.icache.mem_side::system.l2.cpu_side         1796                       # Packet count per connected master and slave (bytes)
system.tol2bus.pkt_count_system.cpu.dcache.mem_side::system.l2.cpu_side      2624732                       # Packet count per connected master and slave (bytes)
system.tol2bus.pkt_count::total               2626528                       # Packet count per connected master and slave (bytes)
system.tol2bus.pkt_size_system.cpu.icache.mem_side::system.l2.cpu_side        67136                       # Cumulative packet size per connected master and slave (bytes)
system.tol2bus.pkt_size_system.cpu.dcache.mem_side::system.l2.cpu_side    105791808                       # Cumulative packet size per connected master and slave (bytes)
system.tol2bus.pkt_size::total              105858944                       # Cumulative packet size per connected master and slave (bytes)
system.tol2bus.snoops                          272126                       # Total snoops (count)
system.tol2bus.snoopTraffic                  12356032                       # Total snoop traffic (bytes)
system.tol2bus.snoop_fanout::samples          1147955                       # Request fanout histogram
system.tol2bus.snoop_fanout::mean            0.000828                       # Request fanout histogram
system.tol2bus.snoop_fanout::stdev           0.028891                       # Request fanout histogram
system.tol2bus.snoop_fanout::underflows             0      0.00%      0.00% # Request fanout histogram
system.tol2bus.snoop_fanout::0                1147008     99.92%     99.92% # Request fanout histogram
system.tol2bus.snoop_fanout::1                    943      0.08%    100.00% # Request fanout histogram
system.tol2bus.snoop_fanout::2                      4      0.00%    100.00% # Request fanout histogram
system.tol2bus.snoop_fanout::overflows              0      0.00%    100.00% # Request fanout histogram
system.tol2bus.snoop_fanout::min_value              0                       # Request fanout histogram
system.tol2bus.snoop_fanout::max_value              2                       # Request fanout histogram
system.tol2bus.snoop_fanout::total            1147955                       # Request fanout histogram
system.tol2bus.reqLayer0.occupancy         3307136000                       # Layer occupancy (ticks)
system.tol2bus.reqLayer0.utilization              2.0                       # Layer utilization (%)
system.tol2bus.respLayer1.occupancy        2625246996                       # Layer occupancy (ticks)
system.tol2bus.respLayer1.utilization             1.6                       # Layer utilization (%)
system.tol2bus.respLayer0.occupancy           2241000                       # Layer occupancy (ticks)
system.tol2bus.respLayer0.utilization             0.0                       # Layer utilization (%)
system.voltage_domain.voltage                       1                       # Voltage in Volts
system.clk_domain.clock                          1000                       # Clock period in ticks
system.l2.pwrStateResidencyTicks::UNDEFINED 168359410000                       # Cumulative time (in ticks) in various power states
system.l2.demand_hits::.cpu.inst                   77                       # number of demand (read+write) hits
system.l2.demand_hits::.cpu.data               595682                       # number of demand (read+write) hits
system.l2.demand_hits::total                   595759                       # number of demand (read+write) hits
system.l2.overall_hits::.cpu.inst                  77                       # number of overall hits
system.l2.overall_hits::.cpu.data              595682                       # number of overall hits
system.l2.overall_hits::total                  595759                       # number of overall hits
system.l2.demand_misses::.cpu.inst                670                       # number of demand (read+write) misses
system.l2.demand_misses::.cpu.data             279400                       # number of demand (read+write) misses
system.l2.demand_misses::total                 280070                       # number of demand (read+write) misses
system.l2.overall_misses::.cpu.inst               670                       # number of overall misses
system.l2.overall_misses::.cpu.data            279400                       # number of overall misses
system.l2.overall_misses::total                280070                       # number of overall misses
system.l2.demand_miss_latency::.cpu.inst     66181000                       # number of demand (read+write) miss cycles
system.l2.demand_miss_latency::.cpu.data  29766208000                       # number of demand (read+write) miss cycles
system.l2.demand_miss_latency::total      29832389000                       # number of demand (read+write) miss cycles
system.l2.overall_miss_latency::.cpu.inst     66181000                       # number of overall miss cycles
system.l2.overall_miss_latency::.cpu.data  29766208000                       # number of overall miss cycles
system.l2.overall_miss_latency::total     29832389000                       # number of overall miss cycles
system.l2.demand_accesses::.cpu.inst              747                       # number of demand (read+write) accesses
system.l2.demand_accesses::.cpu.data           875082                       # number of demand (read+write) accesses
system.l2.demand_accesses::total               875829                       # number of demand (read+write) accesses
system.l2.overall_accesses::.cpu.inst             747                       # number of overall (read+write) accesses
system.l2.overall_accesses::.cpu.data          875082                       # number of overall (read+write) accesses
system.l2.overall_accesses::total              875829                       # number of overall (read+write) accesses
system.l2.demand_miss_rate::.cpu.inst        0.896921                       # miss rate for demand accesses
system.l2.demand_miss_rate::.cpu.data        0.319284                       # miss rate for demand accesses
system.l2.demand_miss_rate::total            0.319777                       # miss rate for demand accesses
system.l2.overall_miss_rate::.cpu.inst       0.896921                       # miss rate for overall accesses
system.l2.overall_miss_rate::.cpu.data       0.319284                       # miss rate for overall accesses
system.l2.overall_miss_rate::total           0.319777                       # miss rate for overall accesses
system.l2.demand_avg_miss_latency::.cpu.inst 98777.611940                       # average overall miss latency
system.l2.demand_avg_miss_latency::.cpu.data 106536.177523                       # average overall miss latency
system.l2.demand_avg_miss_latency::total 106517.617024                       # average overall miss latency
system.l2.overall_avg_miss_latency::.cpu.inst 98777.611940                       # average overall miss latency
system.l2.overall_avg_miss_latency::.cpu.data 106536.177523                       # average overall miss latency
system.l2.overall_avg_miss_latency::total 106517.617024                       # average overall miss latency
system.l2.blocked_cycles::no_mshrs                  0                       # number of cycles access was blocked
system.l2.blocked_cycles::no_targets                0                       # number of cycles access was blocked
system.l2.blocked::no_mshrs                         0                       # number of cycles access was blocked
system.l2.blocked::no_targets                       0                       # number of cycles access was blocked
system.l2.avg_blocked_cycles::no_mshrs            nan                       # average number of cycles each access was blocked
system.l2.avg_blocked_cycles::no_targets          nan                       # average number of cycles each access was blocked
system.l2.writebacks::.writebacks              193063                       # number of writebacks
system.l2.writebacks::total                    193063                       # number of writebacks
system.l2.demand_mshr_hits::.cpu.data               4                       # number of demand (read+write) MSHR hits
system.l2.demand_mshr_hits::total                   4                       # number of demand (read+write) MSHR hits
system.l2.overall_mshr_hits::.cpu.data              4                       # number of overall MSHR hits
system.l2.overall_mshr_hits::total                  4                       # number of overall MSHR hits
system.l2.demand_mshr_misses::.cpu.inst           670                       # number of demand (read+write) MSHR misses
system.l2.demand_mshr_misses::.cpu.data        279396                       # number of demand (read+write) MSHR misses
system.l2.demand_mshr_misses::total            280066                       # number of demand (read+write) MSHR misses
system.l2.overall_mshr_misses::.cpu.inst          670                       # number of overall MSHR misses
system.l2.overall_mshr_misses::.cpu.data       279396                       # number of overall MSHR misses
system.l2.overall_mshr_misses::total           280066                       # number of overall MSHR misses
system.l2.demand_mshr_miss_latency::.cpu.inst     52781000                       # number of demand (read+write) MSHR miss cycles
system.l2.demand_mshr_miss_latency::.cpu.data  24177998000                       # number of demand (read+write) MSHR miss cycles
system.l2.demand_mshr_miss_latency::total  24230779000                       # number of demand (read+write) MSHR miss cycles
system.l2.overall_mshr_miss_latency::.cpu.inst     52781000                       # number of overall MSHR miss cycles
system.l2.overall_mshr_miss_latency::.cpu.data  24177998000                       # number of overall MSHR miss cycles
system.l2.overall_mshr_miss_latency::total  24230779000                       # number of overall MSHR miss cycles
system.l2.demand_mshr_miss_rate::.cpu.inst     0.896921                       # mshr miss rate for demand accesses
system.l2.demand_mshr_miss_rate::.cpu.data     0.319280                       # mshr miss rate for demand accesses
system.l2.demand_mshr_miss_rate::total       0.319772                       # mshr miss rate for demand accesses
system.l2.overall_mshr_miss_rate::.cpu.inst     0.896921                       # mshr miss rate for overall accesses
system.l2.overall_mshr_miss_rate::.cpu.data     0.319280                       # mshr miss rate for overall accesses
system.l2.overall_mshr_miss_rate::total      0.319772                       # mshr miss rate for overall accesses
system.l2.demand_avg_mshr_miss_latency::.cpu.inst 78777.611940                       # average overall mshr miss latency
system.l2.demand_avg_mshr_miss_latency::.cpu.data 86536.664806                       # average overall mshr miss latency
system.l2.demand_avg_mshr_miss_latency::total 86518.102876                       # average overall mshr miss latency
system.l2.overall_avg_mshr_miss_latency::.cpu.inst 78777.611940                       # average overall mshr miss latency
system.l2.overall_avg_mshr_miss_latency::.cpu.data 86536.664806                       # average overall mshr miss latency
system.l2.overall_avg_mshr_miss_latency::total 86518.102876                       # average overall mshr miss latency
system.l2.replacements                         272126                       # number of replacements
system.l2.WritebackDirty_hits::.writebacks       777916                       # number of WritebackDirty hits
system.l2.WritebackDirty_hits::total           777916                       # number of WritebackDirty hits
system.l2.WritebackDirty_accesses::.writebacks       777916                       # number of WritebackDirty accesses(hits+misses)
system.l2.WritebackDirty_accesses::total       777916                       # number of WritebackDirty accesses(hits+misses)
system.l2.WritebackClean_hits::.writebacks          293                       # number of WritebackClean hits
system.l2.WritebackClean_hits::total              293                       # number of WritebackClean hits
system.l2.WritebackClean_accesses::.writebacks          293                       # number of WritebackClean accesses(hits+misses)
system.l2.WritebackClean_accesses::total          293                       # number of WritebackClean accesses(hits+misses)
system.l2.CleanEvict_mshr_misses::.writebacks            3                       # number of CleanEvict MSHR misses
system.l2.CleanEvict_mshr_misses::total             3                       # number of CleanEvict MSHR misses
system.l2.CleanEvict_mshr_miss_rate::.writebacks          inf                       # mshr miss rate for CleanEvict accesses
system.l2.CleanEvict_mshr_miss_rate::total          inf                       # mshr miss rate for CleanEvict accesses
system.l2.ReadExReq_hits::.cpu.data            170573                       # number of ReadExReq hits
system.l2.ReadExReq_hits::total                170573                       # number of ReadExReq hits
system.l2.ReadExReq_misses::.cpu.data          170748                       # number of ReadExReq misses
system.l2.ReadExReq_misses::total              170748                       # number of ReadExReq misses
system.l2.ReadExReq_miss_latency::.cpu.data  18583654000                       # number of ReadExReq miss cycles
system.l2.ReadExReq_miss_latency::total   18583654000                       # number of ReadExReq miss cycles
system.l2.ReadExReq_accesses::.cpu.data        341321                       # number of ReadExReq accesses(hits+misses)
system.l2.ReadExReq_accesses::total            341321                       # number of ReadExReq accesses(hits+misses)
system.l2.ReadExReq_miss_rate::.cpu.data     0.500256                       # miss rate for ReadExReq accesses
system.l2.ReadExReq_miss_rate::total         0.500256                       # miss rate for ReadExReq accesses
system.l2.ReadExReq_avg_miss_latency::.cpu.data 108836.730152                       # average ReadExReq miss latency
system.l2.ReadExReq_avg_miss_latency::total 108836.730152                       # average ReadExReq miss latency
system.l2.ReadExReq_mshr_misses::.cpu.data       170748                       # number of ReadExReq MSHR misses
system.l2.ReadExReq_mshr_misses::total         170748                       # number of ReadExReq MSHR misses
system.l2.ReadExReq_mshr_miss_latency::.cpu.data  15168694000                       # number of ReadExReq MSHR miss cycles
system.l2.ReadExReq_mshr_miss_latency::total  15168694000                       # number of ReadExReq MSHR miss cycles
system.l2.ReadExReq_mshr_miss_rate::.cpu.data     0.500256                       # mshr miss rate for ReadExReq accesses
system.l2.ReadExReq_mshr_miss_rate::total     0.500256                       # mshr miss rate for ReadExReq accesses
system.l2.ReadExReq_avg_mshr_miss_latency::.cpu.data 88836.730152                       # average ReadExReq mshr miss latency
system.l2.ReadExReq_avg_mshr_miss_latency::total 88836.730152                       # average ReadExReq mshr miss latency
system.l2.ReadCleanReq_hits::.cpu.inst             77                       # number of ReadCleanReq hits
system.l2.ReadCleanReq_hits::total                 77                       # number of ReadCleanReq hits
system.l2.ReadCleanReq_misses::.cpu.inst          670                       # number of ReadCleanReq misses
system.l2.ReadCleanReq_misses::total              670                       # number of ReadCleanReq misses
system.l2.ReadCleanReq_miss_latency::.cpu.inst     66181000                       # number of ReadCleanReq miss cycles
system.l2.ReadCleanReq_miss_latency::total     66181000                       # number of ReadCleanReq miss cycles
system.l2.ReadCleanReq_accesses::.cpu.inst          747                       # number of ReadCleanReq accesses(hits+misses)
system.l2.ReadCleanReq_accesses::total            747                       # number of ReadCleanReq accesses(hits+misses)
system.l2.ReadCleanReq_miss_rate::.cpu.inst     0.896921                       # miss rate for ReadCleanReq accesses
system.l2.ReadCleanReq_miss_rate::total      0.896921                       # miss rate for ReadCleanReq accesses
system.l2.ReadCleanReq_avg_miss_latency::.cpu.inst 98777.611940                       # average ReadCleanReq miss latency
system.l2.ReadCleanReq_avg_miss_latency::total 98777.611940                       # average ReadCleanReq miss latency
system.l2.ReadCleanReq_mshr_misses::.cpu.inst          670                       # number of ReadCleanReq MSHR misses
system.l2.ReadCleanReq_mshr_misses::total          670                       # number of ReadCleanReq MSHR misses
system.l2.ReadCleanReq_mshr_miss_latency::.cpu.inst     52781000                       # number of ReadCleanReq MSHR miss cycles
system.l2.ReadCleanReq_mshr_miss_latency::total     52781000                       # number of ReadCleanReq MSHR miss cycles
system.l2.ReadCleanReq_mshr_miss_rate::.cpu.inst     0.896921                       # mshr miss rate for ReadCleanReq accesses
system.l2.ReadCleanReq_mshr_miss_rate::total     0.896921                       # mshr miss rate for ReadCleanReq accesses
system.l2.ReadCleanReq_avg_mshr_miss_latency::.cpu.inst 78777.611940                       # average ReadCleanReq mshr miss latency
system.l2.ReadCleanReq_avg_mshr_miss_latency::total 78777.611940                       # average ReadCleanReq mshr miss latency
system.l2.ReadSharedReq_hits::.cpu.data        425109                       # number of ReadSharedReq hits
system.l2.ReadSharedReq_hits::total            425109                       # number of ReadSharedReq hits
system.l2.ReadSharedReq_misses::.cpu.data       108652                       # number of ReadSharedReq misses
system.l2.ReadSharedReq_misses::total          108652                       # number of ReadSharedReq misses
system.l2.ReadSharedReq_miss_latency::.cpu.data  11182554000                       # number of ReadSharedReq miss cycles
system.l2.ReadSharedReq_miss_latency::total  11182554000                       # number of ReadSharedReq miss cycles
system.l2.ReadSharedReq_accesses::.cpu.data       533761                       # number of ReadSharedReq accesses(hits+misses)
system.l2.ReadSharedReq_accesses::total        533761                       # number of ReadSharedReq accesses(hits+misses)
system.l2.ReadSharedReq_miss_rate::.cpu.data     0.203559                       # miss rate for ReadSharedReq accesses
system.l2.ReadSharedReq_miss_rate::total     0.203559                       # miss rate for ReadSharedReq accesses
system.l2.ReadSharedReq_avg_miss_latency::.cpu.data 102920.829805                       # average ReadSharedReq miss latency
system.l2.ReadSharedReq_avg_miss_latency::total 102920.829805                       # average ReadSharedReq miss latency
system.l2.ReadSharedReq_mshr_hits::.cpu.data            4                       # number of ReadSharedReq MSHR hits
system.l2.ReadSharedReq_mshr_hits::total            4                       # number of ReadSharedReq MSHR hits
system.l2.ReadSharedReq_mshr_misses::.cpu.data       108648                       # number of ReadSharedReq MSHR misses
system.l2.ReadSharedReq_mshr_misses::total       108648                       # number of ReadSharedReq MSHR misses
system.l2.ReadSharedReq_mshr_miss_latency::.cpu.data   9009304000                       # number of ReadSharedReq MSHR miss cycles
system.l2.ReadSharedReq_mshr_miss_latency::total   9009304000                       # number of ReadSharedReq MSHR miss cycles
system.l2.ReadSharedReq_mshr_miss_rate::.cpu.data     0.203552                       # mshr miss rate for ReadSharedReq accesses
system.l2.ReadSharedReq_mshr_miss_rate::total     0.203552                       # mshr miss rate for ReadSharedReq accesses
system.l2.ReadSharedReq_avg_mshr_miss_latency::.cpu.data 82921.949783                       # average ReadSharedReq mshr miss latency
system.l2.ReadSharedReq_avg_mshr_miss_latency::total 82921.949783                       # average ReadSharedReq mshr miss latency
system.l2.tags.pwrStateResidencyTicks::UNDEFINED 168359410000                       # Cumulative time (in ticks) in various power states
system.l2.tags.tagsinuse                  8087.055629                       # Cycle average of tags in use
system.l2.tags.total_refs                     1750456                       # Total number of references to valid blocks.
system.l2.tags.sampled_refs                    280318                       # Sample count of references to valid blocks.
system.l2.tags.avg_refs                      6.244537                       # Average number of references to valid blocks.
system.l2.tags.warmup_cycle                     87000                       # Cycle when the warmup percentage was hit.
system.l2.tags.occ_blocks::.writebacks      16.557678                       # Average occupied blocks per requestor
system.l2.tags.occ_blocks::.cpu.inst        24.774985                       # Average occupied blocks per requestor
system.l2.tags.occ_blocks::.cpu.data      8045.722966                       # Average occupied blocks per requestor
system.l2.tags.occ_percent::.writebacks      0.002021                       # Average percentage of cache occupancy
system.l2.tags.occ_percent::.cpu.inst        0.003024                       # Average percentage of cache occupancy
system.l2.tags.occ_percent::.cpu.data        0.982144                       # Average percentage of cache occupancy
system.l2.tags.occ_percent::total            0.987189                       # Average percentage of cache occupancy
system.l2.tags.occ_task_id_blocks::1024          8192                       # Occupied blocks per task id
system.l2.tags.age_task_id_blocks_1024::0          100                       # Occupied blocks per task id
system.l2.tags.age_task_id_blocks_1024::1          292                       # Occupied blocks per task id
system.l2.tags.age_task_id_blocks_1024::2         2456                       # Occupied blocks per task id
system.l2.tags.age_task_id_blocks_1024::3         5083                       # Occupied blocks per task id
system.l2.tags.age_task_id_blocks_1024::4          261                       # Occupied blocks per task id
system.l2.tags.occ_task_id_percent::1024            1                       # Percentage of cache occupancy per task id
system.l2.tags.tag_accesses                   7282170                       # Number of tag accesses
system.l2.tags.data_accesses                  7282170                       # Number of data accesses
system.cpu_voltage_domain.voltage                   1                       # Voltage in Volts
system.mem_ctrls.pwrStateResidencyTicks::UNDEFINED 168359410000                       # Cumulative time (in ticks) in various power states
system.mem_ctrls.bytes_read::.cpu.inst          42880                       # Number of bytes read from this memory
system.mem_ctrls.bytes_read::.cpu.data       17881344                       # Number of bytes read from this memory
system.mem_ctrls.bytes_read::total           17924224                       # Number of bytes read from this memory
system.mem_ctrls.bytes_inst_read::.cpu.inst        42880                       # Number of instructions bytes read from this memory
system.mem_ctrls.bytes_inst_read::total         42880                       # Number of instructions bytes read from this memory
system.mem_ctrls.bytes_written::.writebacks     12355968                       # Number of bytes written to this memory
system.mem_ctrls.bytes_written::total        12355968                       # Number of bytes written to this memory
system.mem_ctrls.num_reads::.cpu.inst             670                       # Number of read requests responded to by this memory
system.mem_ctrls.num_reads::.cpu.data          279396                       # Number of read requests responded to by this memory
system.mem_ctrls.num_reads::total              280066                       # Number of read requests responded to by this memory
system.mem_ctrls.num_writes::.writebacks       193062                       # Number of write requests responded to by this memory
system.mem_ctrls.num_writes::total             193062                       # Number of write requests responded to by this memory
system.mem_ctrls.bw_read::.cpu.inst            254693                       # Total read bandwidth from this memory (bytes/s)
system.mem_ctrls.bw_read::.cpu.data         106209353                       # Total read bandwidth from this memory (bytes/s)
system.mem_ctrls.bw_read::total             106464046                       # Total read bandwidth from this memory (bytes/s)
system.mem_ctrls.bw_inst_read::.cpu.inst       254693                       # Instruction read bandwidth from this memory (bytes/s)
system.mem_ctrls.bw_inst_read::total           254693                       # Instruction read bandwidth from this memory (bytes/s)
system.mem_ctrls.bw_write::.writebacks       73390421                       # Write bandwidth from this memory (bytes/s)
system.mem_ctrls.bw_write::total             73390421                       # Write bandwidth from this memory (bytes/s)
system.mem_ctrls.bw_total::.writebacks       73390421                       # Total bandwidth to/from this memory (bytes/s)
system.mem_ctrls.bw_total::.cpu.inst           254693                       # Total bandwidth to/from this memory (bytes/s)
system.mem_ctrls.bw_total::.cpu.data        106209353                       # Total bandwidth to/from this memory (bytes/s)
system.mem_ctrls.bw_total::total            179854467                       # Total bandwidth to/from this memory (bytes/s)
system.mem_ctrls.avgPriority_.writebacks::samples    193062.00                       # Average QoS priority value for accepted requests
system.mem_ctrls.avgPriority_.cpu.inst::samples       670.00                       # Average QoS priority value for accepted requests
system.mem_ctrls.avgPriority_.cpu.data::samples    278858.00                       # Average QoS priority value for accepted requests
system.mem_ctrls.priorityMinLatency      0.000000018750                       # per QoS priority minimum request to response latency (s)
system.mem_ctrls.priorityMaxLatency      0.028410762500                       # per QoS priority maximum request to response latency (s)
system.mem_ctrls.numReadWriteTurnArounds        11322                       # Number of turnarounds from READ to WRITE
system.mem_ctrls.numWriteReadTurnArounds        11322                       # Number of turnarounds from WRITE to READ
system.mem_ctrls.numStayReadState              782793                       # Number of times bus staying in READ state
system.mem_ctrls.numStayWriteState             181920                       # Number of times bus staying in WRITE state
system.mem_ctrls.readReqs                      280066                       # Number of read requests accepted
system.mem_ctrls.writeReqs                     193062                       # Number of write requests accepted
system.mem_ctrls.readBursts                    280066                       # Number of DRAM read bursts, including those serviced by the write queue
system.mem_ctrls.writeBursts                   193062                       # Number of DRAM write bursts, including those merged in the write queue
system.mem_ctrls.servicedByWrQ                    538                       # Number of DRAM read bursts serviced by the write queue
system.mem_ctrls.mergedWrBursts                     0                       # Number of DRAM write bursts merged with an existing one
system.mem_ctrls.neitherReadNorWriteReqs            0                       # Number of requests that are neither read nor write
system.mem_ctrls.perBankRdBursts::0             18173                       # Per bank write bursts
system.mem_ctrls.perBankRdBursts::1             17744                       # Per bank write bursts
system.mem_ctrls.perBankRdBursts::2             17492                       # Per bank write bursts
system.mem_ctrls.perBankRdBursts::3             17778                       # Per bank write bursts
system.mem_ctrls.perBankRdBursts::4             18726                       # Per bank write bursts
system.mem_ctrls.perBankRdBursts::5             18112                       # Per bank write bursts
system.mem_ctrls.perBankRdBursts::6             16675                       # Per bank write bursts
system.mem_ctrls.perBankRdBursts::7             17176                       # Per bank write bursts
system.mem_ctrls.perBankRdBursts::8             17577                       # Per bank write bursts
system.mem_ctrls.perBankRdBursts::9             17324                       # Per bank write bursts
system.mem_ctrls.perBankRdBursts::10            16616                       # Per bank write bursts
system.mem_ctrls.perBankRdBursts::11            16409                       # Per bank write bursts
system.mem_ctrls.perBankRdBursts::12            17446                       # Per bank write bursts
system.mem_ctrls.perBankRdBursts::13            17784                       # Per bank write bursts
system.mem_ctrls.perBankRdBursts::14            16917                       # Per bank write bursts
system.mem_ctrls.perBankRdBursts::15            17579                       # Per bank write bursts
system.mem_ctrls.perBankWrBursts::0             12556                       # Per bank write bursts
system.mem_ctrls.perBankWrBursts::1             12174                       # Per bank write bursts
system.mem_ctrls.perBankWrBursts::2             11892                       # Per bank write bursts
system.mem_ctrls.perBankWrBursts::3             12371                       # Per bank write bursts
system.mem_ctrls.perBankWrBursts::4             13559                       # Per bank write bursts
system.mem_ctrls.perBankWrBursts::5             12843                       # Per bank write bursts
system.mem_ctrls.perBankWrBursts::6             11332                       # Per bank write bursts
system.mem_ctrls.perBankWrBursts::7             11691                       # Per bank write bursts
system.mem_ctrls.perBankWrBursts::8             12111                       # Per bank write bursts
system.mem_ctrls.perBankWrBursts::9             12008                       # Per bank write bursts
system.mem_ctrls.perBankWrBursts::10            11409                       # Per bank write bursts
system.mem_ctrls.perBankWrBursts::11            11254                       # Per bank write bursts
system.mem_ctrls.perBankWrBursts::12            12032                       # Per bank write bursts
system.mem_ctrls.perBankWrBursts::13            12266                       # Per bank write bursts
system.mem_ctrls.perBankWrBursts::14            11389                       # Per bank write bursts
system.mem_ctrls.perBankWrBursts::15            12146                       # Per bank write bursts
system.mem_ctrls.avgRdQLen                       1.05                       # Average read queue length when enqueuing
system.mem_ctrls.avgWrQLen                      24.60                       # Average write queue length when enqueuing
system.mem_ctrls.totQLat                   4582312000                       # Total ticks spent queuing
system.mem_ctrls.totBusLat                 1397640000                       # Total ticks spent in databus transfers
system.mem_ctrls.totMemAccLat              9823462000                       # Total ticks spent from burst creation until serviced by the DRAM
system.mem_ctrls.avgQLat                     16393.03                       # Average queueing delay per DRAM burst
system.mem_ctrls.avgBusLat                    5000.00                       # Average bus latency per DRAM burst
system.mem_ctrls.avgMemAccLat                35143.03                       # Average memory access latency per DRAM burst
system.mem_ctrls.numRdRetry                         0                       # Number of times read queue was full causing retry
system.mem_ctrls.numWrRetry                         0                       # Number of times write queue was full causing retry
system.mem_ctrls.readRowHits                   145665                       # Number of row buffer hits during reads
system.mem_ctrls.writeRowHits                   98800                       # Number of row buffer hits during writes
system.mem_ctrls.readRowHitRate                 52.11                       # Row buffer hit rate for reads
system.mem_ctrls.writeRowHitRate                51.18                       # Row buffer hit rate for writes
system.mem_ctrls.readPktSize::0                     0                       # Read request sizes (log2)
system.mem_ctrls.readPktSize::1                     0                       # Read request sizes (log2)
system.mem_ctrls.readPktSize::2                     0                       # Read request sizes (log2)
system.mem_ctrls.readPktSize::3                     0                       # Read request sizes (log2)
system.mem_ctrls.readPktSize::4                     0                       # Read request sizes (log2)
system.mem_ctrls.readPktSize::5                     0                       # Read request sizes (log2)
system.mem_ctrls.readPktSize::6                280066                       # Read request sizes (log2)
system.mem_ctrls.writePktSize::0                    0                       # Write request sizes (log2)
system.mem_ctrls.writePktSize::1                    0                       # Write request sizes (log2)
system.mem_ctrls.writePktSize::2                    0                       # Write request sizes (log2)
system.mem_ctrls.writePktSize::3                    0                       # Write request sizes (log2)
system.mem_ctrls.writePktSize::4                    0                       # Write request sizes (log2)
system.mem_ctrls.writePktSize::5                    0                       # Write request sizes (log2)
system.mem_ctrls.writePktSize::6               193062                       # Write request sizes (log2)
system.mem_ctrls.rdQLenPdf::0                  226083                       # What read queue length does an incoming req see
system.mem_ctrls.rdQLenPdf::1                   53332                       # What read queue length does an incoming req see
system.mem_ctrls.rdQLenPdf::2                      71                       # What read queue length does an incoming req see
system.mem_ctrls.rdQLenPdf::3                      41                       # What read queue length does an incoming req see
system.mem_ctrls.rdQLenPdf::4                       1                       # What read queue length does an incoming req see
system.mem_ctrls.rdQLenPdf::5                       0                       # What read queue length does an incoming req see
system.mem_ctrls.rdQLenPdf::6                       0                       # What read queue length does an incoming req see
system.mem_ctrls.rdQLenPdf::7                       0                       # What read queue length does an incoming req see
system.mem_ctrls.rdQLenPdf::8                       0                       # What read queue length does an incoming req see
system.mem_ctrls.rdQLenPdf::9                       0                       # What read queue length does an incoming req see
system.mem_ctrls.rdQLenPdf::10                      0                       # What read queue length does an incoming req see
system.mem_ctrls.rdQLenPdf::11                      0                       # What read queue length does an incoming req see
system.mem_ctrls.rdQLenPdf::12                      0                       # What read queue length does an incoming req see
system.mem_ctrls.rdQLenPdf::13                      0                       # What read queue length does an incoming req see
system.mem_ctrls.rdQLenPdf::14                      0                       # What read queue length does an incoming req see
system.mem_ctrls.rdQLenPdf::15                      0                       # What read queue length does an incoming req see
system.mem_ctrls.rdQLenPdf::16                      0                       # What read queue length does an incoming req see
system.mem_ctrls.rdQLenPdf::17                      0                       # What read queue length does an incoming req see
system.mem_ctrls.rdQLenPdf::18                      0                       # What read queue length does an incoming req see
system.mem_ctrls.rdQLenPdf::19                      0                       # What read queue length does an incoming req see
system.mem_ctrls.rdQLenPdf::20                      0                       # What read queue length does an incoming req see
system.mem_ctrls.rdQLenPdf::21                      0                       # What read queue length does an incoming req see
system.mem_ctrls.rdQLenPdf::22                      0                       # What read queue length does an incoming req see
system.mem_ctrls.rdQLenPdf::23                      0                       # What read queue length does an incoming req see
system.mem_ctrls.rdQLenPdf::24                      0                       # What read queue length does an incoming req see
system.mem_ctrls.rdQLenPdf::25                      0                       # What read queue length does an incoming req see
system.mem_ctrls.rdQLenPdf::26                      0                       # What read queue length does an incoming req see
system.mem_ctrls.rdQLenPdf::27                      0                       # What read queue length does an incoming req see
system.mem_ctrls.rdQLenPdf::28                      0                       # What read queue length does an incoming req see
system.mem_ctrls.rdQLenPdf::29                      0                       # What read queue length does an incoming req see
system.mem_ctrls.rdQLenPdf::30                      0                       # What read queue length does an incoming req see
system.mem_ctrls.rdQLenPdf::31                      0                       # What read queue length does an incoming req see
system.mem_ctrls.wrQLenPdf::0                       1                       # What write queue length does an incoming req see
system.mem_ctrls.wrQLenPdf::1                       1                       # What write queue length does an incoming req see
system.mem_ctrls.wrQLenPdf::2                       1                       # What write queue length does an incoming req see
system.mem_ctrls.wrQLenPdf::3                       1                       # What write queue length does an incoming req see
system.mem_ctrls.wrQLenPdf::4                       1                       # What write queue length does an incoming req see
system.mem_ctrls.wrQLenPdf::5                       1                       # What write queue length does an incoming req see
system.mem_ctrls.wrQLenPdf::6                       1                       # What write queue length does an incoming req see
system.mem_ctrls.wrQLenPdf::7                       1                       # What write queue length does an incoming req see
system.mem_ctrls.wrQLenPdf::8                       1                       # What write queue length does an incoming req see
system.mem_ctrls.wrQLenPdf::9                       1                       # What write queue length does an incoming req see
system.mem_ctrls.wrQLenPdf::10                      1                       # What write queue length does an incoming req see
system.mem_ctrls.wrQLenPdf::11                      1                       # What write queue length does an incoming req see
system.mem_ctrls.wrQLenPdf::12                      1                       # What write queue length does an incoming req see
system.mem_ctrls.wrQLenPdf::13                      1                       # What write queue length does an incoming req see
system.mem_ctrls.wrQLenPdf::14                      1                       # What write queue length does an incoming req see
system.mem_ctrls.wrQLenPdf::15                   5483                       # What write queue length does an incoming req see
system.mem_ctrls.wrQLenPdf::16                   5810                       # What write queue length does an incoming req see
system.mem_ctrls.wrQLenPdf::17                  11103                       # What write queue length does an incoming req see
system.mem_ctrls.wrQLenPdf::18                  11408                       # What write queue length does an incoming req see
system.mem_ctrls.wrQLenPdf::19                  11398                       # What write queue length does an incoming req see
system.mem_ctrls.wrQLenPdf::20                  11402                       # What write queue length does an incoming req see
system.mem_ctrls.wrQLenPdf::21                  11464                       # What write queue length does an incoming req see
system.mem_ctrls.wrQLenPdf::22                  11395                       # What write queue length does an incoming req see
system.mem_ctrls.wrQLenPdf::23                  11373                       # What write queue length does an incoming req see
system.mem_ctrls.wrQLenPdf::24                  11376                       # What write queue length does an incoming req see
system.mem_ctrls.wrQLenPdf::25                  11369                       # What write queue length does an incoming req see
system.mem_ctrls.wrQLenPdf::26                  11358                       # What write queue length does an incoming req see
system.mem_ctrls.wrQLenPdf::27                  11358                       # What write queue length does an incoming req see
system.mem_ctrls.wrQLenPdf::28                  11369                       # What write queue length does an incoming req see
system.mem_ctrls.wrQLenPdf::29                  11348                       # What write queue length does an incoming req see
system.mem_ctrls.wrQLenPdf::30                  11326                       # What write queue length does an incoming req see
system.mem_ctrls.wrQLenPdf::31                  11379                       # What write queue length does an incoming req see
system.mem_ctrls.wrQLenPdf::32                  11322                       # What write queue length does an incoming req see
system.mem_ctrls.wrQLenPdf::33                      6                       # What write queue length does an incoming req see
system.mem_ctrls.wrQLenPdf::34                      0                       # What write queue length does an incoming req see
system.mem_ctrls.wrQLenPdf::35                      0                       # What write queue length does an incoming req see
system.mem_ctrls.wrQLenPdf::36                      0                       # What write queue length does an incoming req see
system.mem_ctrls.wrQLenPdf::37                      0                       # What write queue length does an incoming req see
system.mem_ctrls.wrQLenPdf::38                      0                       # What write queue length does an incoming req see
system.mem_ctrls.wrQLenPdf::39                      0                       # What write queue length does an incoming req see
system.mem_ctrls.wrQLenPdf::40                      0                       # What write queue length does an incoming req see
system.mem_ctrls.wrQLenPdf::41                      0                       # What write queue length does an incoming req see
system.mem_ctrls.wrQLenPdf::42                      0                       # What write queue length does an incoming req see
system.mem_ctrls.wrQLenPdf::43                      0                       # What write queue length does an incoming req see
system.mem_ctrls.wrQLenPdf::44                      0                       # What write queue length does an incoming req see
system.mem_ctrls.wrQLenPdf::45                      0                       # What write queue length does an incoming req see
system.mem_ctrls.wrQLenPdf::46                      0                       # What write queue length does an incoming req see
system.mem_ctrls.wrQLenPdf::47                      0                       # What write queue length does an incoming req see
system.mem_ctrls.wrQLenPdf::48                      0                       # What write queue length does an incoming req see
system.mem_ctrls.wrQLenPdf::49                      0                       # What write queue length does an incoming req see
system.mem_ctrls.wrQLenPdf::50                      0                       # What write queue length does an incoming req see
system.mem_ctrls.wrQLenPdf::51                      0                       # What write queue length does an incoming req see
system.mem_ctrls.wrQLenPdf::52                      0                       # What write queue length does an incoming req see
system.mem_ctrls.wrQLenPdf::53                      0                       # What write queue length does an incoming req see
system.mem_ctrls.wrQLenPdf::54                      0                       # What write queue length does an incoming req see
system.mem_ctrls.wrQLenPdf::55                      0                       # What write queue length does an incoming req see
system.mem_ctrls.wrQLenPdf::56                      0                       # What write queue length does an incoming req see
system.mem_ctrls.wrQLenPdf::57                      0                       # What write queue length does an incoming req see
system.mem_ctrls.wrQLenPdf::58                      0                       # What write queue length does an incoming req see
system.mem_ctrls.wrQLenPdf::59                      0                       # What write queue length does an incoming req see
system.mem_ctrls.wrQLenPdf::60                      0                       # What write queue length does an incoming req see
system.mem_ctrls.wrQLenPdf::61                      0                       # What write queue length does an incoming req see
system.mem_ctrls.wrQLenPdf::62                      0                       # What write queue length does an incoming req see
system.mem_ctrls.wrQLenPdf::63                      0                       # What write queue length does an incoming req see
system.mem_ctrls.bytesPerActivate::samples       228080                       # Bytes accessed per row activation
system.mem_ctrls.bytesPerActivate::mean    132.596843                       # Bytes accessed per row activation
system.mem_ctrls.bytesPerActivate::gmean    88.933280                       # Bytes accessed per row activation
system.mem_ctrls.bytesPerActivate::stdev   191.670304                       # Bytes accessed per row activation
system.mem_ctrls.bytesPerActivate::0-127       175081     76.76%     76.76% # Bytes accessed per row activation
system.mem_ctrls.bytesPerActivate::128-255        27886     12.23%     88.99% # Bytes accessed per row activation
system.mem_ctrls.bytesPerActivate::256-383         6065      2.66%     91.65% # Bytes accessed per row activation
system.mem_ctrls.bytesPerActivate::384-511         1754      0.77%     92.42% # Bytes accessed per row activation
system.mem_ctrls.bytesPerActivate::512-639         9180      4.02%     96.44% # Bytes accessed per row activation
system.mem_ctrls.bytesPerActivate::640-767          590      0.26%     96.70% # Bytes accessed per row activation
system.mem_ctrls.bytesPerActivate::768-895          446      0.20%     96.90% # Bytes accessed per row activation
system.mem_ctrls.bytesPerActivate::896-1023          567      0.25%     97.15% # Bytes accessed per row activation
system.mem_ctrls.bytesPerActivate::1024-1151         6511      2.85%    100.00% # Bytes accessed per row activation
system.mem_ctrls.bytesPerActivate::total       228080                       # Bytes accessed per row activation
system.mem_ctrls.rdPerTurnAround::samples        11322                       # Reads before turning the bus around for writes
system.mem_ctrls.rdPerTurnAround::mean      24.687158                       # Reads before turning the bus around for writes
system.mem_ctrls.rdPerTurnAround::gmean     22.226016                       # Reads before turning the bus around for writes
system.mem_ctrls.rdPerTurnAround::stdev     29.686047                       # Reads before turning the bus around for writes
system.mem_ctrls.rdPerTurnAround::0-63          11163     98.60%     98.60% # Reads before turning the bus around for writes
system.mem_ctrls.rdPerTurnAround::64-127          100      0.88%     99.48% # Reads before turning the bus around for writes
system.mem_ctrls.rdPerTurnAround::128-191           12      0.11%     99.58% # Reads before turning the bus around for writes
system.mem_ctrls.rdPerTurnAround::192-255            5      0.04%     99.63% # Reads before turning the bus around for writes
system.mem_ctrls.rdPerTurnAround::256-319           28      0.25%     99.88% # Reads before turning the bus around for writes
[...]
system.cpu.icache.ReadReq_avg_miss_latency::.cpu.inst 95809.906292                       # average ReadReq miss latency
system.cpu.icache.ReadReq_avg_miss_latency::total 95809.906292                       # average ReadReq miss latency
system.cpu.icache.ReadReq_mshr_misses::.cpu.inst          747                       # number of ReadReq MSHR misses
system.cpu.icache.ReadReq_mshr_misses::total          747                       # number of ReadReq MSHR misses
system.cpu.icache.ReadReq_mshr_miss_latency::.cpu.inst     70076000                       # number of ReadReq MSHR miss cycles
system.cpu.icache.ReadReq_mshr_miss_latency::total     70076000                       # number of ReadReq MSHR miss cycles
system.cpu.icache.ReadReq_mshr_miss_rate::.cpu.inst     0.000077                       # mshr miss rate for ReadReq accesses
system.cpu.icache.ReadReq_mshr_miss_rate::total     0.000077                       # mshr miss rate for ReadReq accesses
system.cpu.icache.ReadReq_avg_mshr_miss_latency::.cpu.inst 93809.906292                       # average ReadReq mshr miss latency
system.cpu.icache.ReadReq_avg_mshr_miss_latency::total 93809.906292                       # average ReadReq mshr miss latency
system.cpu.icache.tags.pwrStateResidencyTicks::UNDEFINED 168359410000                       # Cumulative time (in ticks) in various power states
system.cpu.icache.tags.tagsinuse           363.220702                       # Cycle average of tags in use
system.cpu.icache.tags.total_refs             9663620                       # Total number of references to valid blocks.
system.cpu.icache.tags.sampled_refs               747                       # Sample count of references to valid blocks.
system.cpu.icache.tags.avg_refs          12936.572959                       # Average number of references to valid blocks.
system.cpu.icache.tags.warmup_cycle            108000                       # Cycle when the warmup percentage was hit.
system.cpu.icache.tags.occ_blocks::.cpu.inst   363.220702                       # Average occupied blocks per requestor
system.cpu.icache.tags.occ_percent::.cpu.inst     0.709415                       # Average percentage of cache occupancy
system.cpu.icache.tags.occ_percent::total     0.709415                       # Average percentage of cache occupancy
system.cpu.icache.tags.occ_task_id_blocks::1024          445                       # Occupied blocks per task id
system.cpu.icache.tags.age_task_id_blocks_1024::4          445                       # Occupied blocks per task id
system.cpu.icache.tags.occ_task_id_percent::1024     0.869141                       # Percentage of cache occupancy per task id
system.cpu.icache.tags.tag_accesses          19327987                       # Number of tag accesses
system.cpu.icache.tags.data_accesses         19327987                       # Number of data accesses
system.cpu.dtb.walker.pwrStateResidencyTicks::UNDEFINED 168359410000                       # Cumulative time (in ticks) in various power states
system.cpu.dtb.stage2_mmu.stage2_tlb.walker.pwrStateResidencyTicks::UNDEFINED 168359410000                       # Cumulative time (in ticks) in various power states
system.cpu.dcache.pwrStateResidencyTicks::UNDEFINED 168359410000                       # Cumulative time (in ticks) in various power states
system.cpu.dcache.demand_hits::.cpu.data     51153611                       # number of demand (read+write) hits
system.cpu.dcache.demand_hits::total         51153611                       # number of demand (read+write) hits
system.cpu.dcache.overall_hits::.cpu.data     51154087                       # number of overall hits
system.cpu.dcache.overall_hits::total        51154087                       # number of overall hits
system.cpu.dcache.demand_misses::.cpu.data       920055                       # number of demand (read+write) misses
system.cpu.dcache.demand_misses::total         920055                       # number of demand (read+write) misses
system.cpu.dcache.overall_misses::.cpu.data       927997                       # number of overall misses
system.cpu.dcache.overall_misses::total        927997                       # number of overall misses
system.cpu.dcache.demand_miss_latency::.cpu.data  47503640000                       # number of demand (read+write) miss cycles
system.cpu.dcache.demand_miss_latency::total  47503640000                       # number of demand (read+write) miss cycles
system.cpu.dcache.overall_miss_latency::.cpu.data  47503640000                       # number of overall miss cycles
system.cpu.dcache.overall_miss_latency::total  47503640000                       # number of overall miss cycles
system.cpu.dcache.demand_accesses::.cpu.data     52073666                       # number of demand (read+write) accesses
system.cpu.dcache.demand_accesses::total     52073666                       # number of demand (read+write) accesses
system.cpu.dcache.overall_accesses::.cpu.data     52082084                       # number of overall (read+write) accesses
system.cpu.dcache.overall_accesses::total     52082084                       # number of overall (read+write) accesses
system.cpu.dcache.demand_miss_rate::.cpu.data     0.017668                       # miss rate for demand accesses
system.cpu.dcache.demand_miss_rate::total     0.017668                       # miss rate for demand accesses
system.cpu.dcache.overall_miss_rate::.cpu.data     0.017818                       # miss rate for overall accesses
system.cpu.dcache.overall_miss_rate::total     0.017818                       # miss rate for overall accesses
system.cpu.dcache.demand_avg_miss_latency::.cpu.data 51631.304650                       # average overall miss latency
system.cpu.dcache.demand_avg_miss_latency::total 51631.304650                       # average overall miss latency
system.cpu.dcache.overall_avg_miss_latency::.cpu.data 51189.432724                       # average overall miss latency
system.cpu.dcache.overall_avg_miss_latency::total 51189.432724                       # average overall miss latency
system.cpu.dcache.blocked_cycles::no_mshrs        86708                       # number of cycles access was blocked
system.cpu.dcache.blocked_cycles::no_targets            0                       # number of cycles access was blocked
system.cpu.dcache.blocked::no_mshrs              3405                       # number of cycles access was blocked
system.cpu.dcache.blocked::no_targets               0                       # number of cycles access was blocked
system.cpu.dcache.avg_blocked_cycles::no_mshrs    25.464905                       # average number of cycles each access was blocked
system.cpu.dcache.avg_blocked_cycles::no_targets          nan                       # average number of cycles each access was blocked
system.cpu.dcache.writebacks::.writebacks       777916                       # number of writebacks
system.cpu.dcache.writebacks::total            777916                       # number of writebacks
system.cpu.dcache.demand_mshr_hits::.cpu.data        52910                       # number of demand (read+write) MSHR hits
system.cpu.dcache.demand_mshr_hits::total        52910                       # number of demand (read+write) MSHR hits
system.cpu.dcache.overall_mshr_hits::.cpu.data        52910                       # number of overall MSHR hits
system.cpu.dcache.overall_mshr_hits::total        52910                       # number of overall MSHR hits
system.cpu.dcache.demand_mshr_misses::.cpu.data       867145                       # number of demand (read+write) MSHR misses
system.cpu.dcache.demand_mshr_misses::total       867145                       # number of demand (read+write) MSHR misses
system.cpu.dcache.overall_mshr_misses::.cpu.data       875082                       # number of overall MSHR misses
system.cpu.dcache.overall_mshr_misses::total       875082                       # number of overall MSHR misses
system.cpu.dcache.demand_mshr_miss_latency::.cpu.data  44160322000                       # number of demand (read+write) MSHR miss cycles
system.cpu.dcache.demand_mshr_miss_latency::total  44160322000                       # number of demand (read+write) MSHR miss cycles
system.cpu.dcache.overall_mshr_miss_latency::.cpu.data  44930539999                       # number of overall MSHR miss cycles
system.cpu.dcache.overall_mshr_miss_latency::total  44930539999                       # number of overall MSHR miss cycles
system.cpu.dcache.demand_mshr_miss_rate::.cpu.data     0.016652                       # mshr miss rate for demand accesses
system.cpu.dcache.demand_mshr_miss_rate::total     0.016652                       # mshr miss rate for demand accesses
system.cpu.dcache.overall_mshr_miss_rate::.cpu.data     0.016802                       # mshr miss rate for overall accesses
system.cpu.dcache.overall_mshr_miss_rate::total     0.016802                       # mshr miss rate for overall accesses
system.cpu.dcache.demand_avg_mshr_miss_latency::.cpu.data 50926.110397                       # average overall mshr miss latency
system.cpu.dcache.demand_avg_mshr_miss_latency::total 50926.110397                       # average overall mshr miss latency
system.cpu.dcache.overall_avg_mshr_miss_latency::.cpu.data 51344.376869                       # average overall mshr miss latency
system.cpu.dcache.overall_avg_mshr_miss_latency::total 51344.376869                       # average overall mshr miss latency
system.cpu.dcache.replacements                 874569                       # number of replacements
system.cpu.dcache.ReadReq_hits::.cpu.data     40597686                       # number of ReadReq hits
system.cpu.dcache.ReadReq_hits::total        40597686                       # number of ReadReq hits
system.cpu.dcache.ReadReq_misses::.cpu.data       525879                       # number of ReadReq misses
system.cpu.dcache.ReadReq_misses::total        525879                       # number of ReadReq misses
system.cpu.dcache.ReadReq_miss_latency::.cpu.data  22006056000                       # number of ReadReq miss cycles
system.cpu.dcache.ReadReq_miss_latency::total  22006056000                       # number of ReadReq miss cycles
system.cpu.dcache.ReadReq_accesses::.cpu.data     41123565                       # number of ReadReq accesses(hits+misses)
system.cpu.dcache.ReadReq_accesses::total     41123565                       # number of ReadReq accesses(hits+misses)
system.cpu.dcache.ReadReq_miss_rate::.cpu.data     0.012788                       # miss rate for ReadReq accesses
system.cpu.dcache.ReadReq_miss_rate::total     0.012788                       # miss rate for ReadReq accesses
system.cpu.dcache.ReadReq_avg_miss_latency::.cpu.data 41846.234590                       # average ReadReq miss latency
system.cpu.dcache.ReadReq_avg_miss_latency::total 41846.234590                       # average ReadReq miss latency
system.cpu.dcache.ReadReq_mshr_hits::.cpu.data           55                       # number of ReadReq MSHR hits
system.cpu.dcache.ReadReq_mshr_hits::total           55                       # number of ReadReq MSHR hits
system.cpu.dcache.ReadReq_mshr_misses::.cpu.data       525824                       # number of ReadReq MSHR misses
system.cpu.dcache.ReadReq_mshr_misses::total       525824                       # number of ReadReq MSHR misses
system.cpu.dcache.ReadReq_mshr_miss_latency::.cpu.data  20952580000                       # number of ReadReq MSHR miss cycles
system.cpu.dcache.ReadReq_mshr_miss_latency::total  20952580000                       # number of ReadReq MSHR miss cycles
system.cpu.dcache.ReadReq_mshr_miss_rate::.cpu.data     0.012786                       # mshr miss rate for ReadReq accesses
system.cpu.dcache.ReadReq_mshr_miss_rate::total     0.012786                       # mshr miss rate for ReadReq accesses
system.cpu.dcache.ReadReq_avg_mshr_miss_latency::.cpu.data 39847.135163                       # average ReadReq mshr miss latency
system.cpu.dcache.ReadReq_avg_mshr_miss_latency::total 39847.135163                       # average ReadReq mshr miss latency
system.cpu.dcache.WriteReq_hits::.cpu.data     10555925                       # number of WriteReq hits
system.cpu.dcache.WriteReq_hits::total       10555925                       # number of WriteReq hits
system.cpu.dcache.WriteReq_misses::.cpu.data       394176                       # number of WriteReq misses
system.cpu.dcache.WriteReq_misses::total       394176                       # number of WriteReq misses
system.cpu.dcache.WriteReq_miss_latency::.cpu.data  25497584000                       # number of WriteReq miss cycles
system.cpu.dcache.WriteReq_miss_latency::total  25497584000                       # number of WriteReq miss cycles
system.cpu.dcache.WriteReq_accesses::.cpu.data     10950101                       # number of WriteReq accesses(hits+misses)
system.cpu.dcache.WriteReq_accesses::total     10950101                       # number of WriteReq accesses(hits+misses)
system.cpu.dcache.WriteReq_miss_rate::.cpu.data     0.035997                       # miss rate for WriteReq accesses
system.cpu.dcache.WriteReq_miss_rate::total     0.035997                       # miss rate for WriteReq accesses
system.cpu.dcache.WriteReq_avg_miss_latency::.cpu.data 64685.785030                       # average WriteReq miss latency
system.cpu.dcache.WriteReq_avg_miss_latency::total 64685.785030                       # average WriteReq miss latency
system.cpu.dcache.WriteReq_mshr_hits::.cpu.data        52855                       # number of WriteReq MSHR hits
system.cpu.dcache.WriteReq_mshr_hits::total        52855                       # number of WriteReq MSHR hits
system.cpu.dcache.WriteReq_mshr_misses::.cpu.data       341321                       # number of WriteReq MSHR misses
system.cpu.dcache.WriteReq_mshr_misses::total       341321                       # number of WriteReq MSHR misses
system.cpu.dcache.WriteReq_mshr_miss_latency::.cpu.data  23207742000                       # number of WriteReq MSHR miss cycles
system.cpu.dcache.WriteReq_mshr_miss_latency::total  23207742000                       # number of WriteReq MSHR miss cycles
system.cpu.dcache.WriteReq_mshr_miss_rate::.cpu.data     0.031171                       # mshr miss rate for WriteReq accesses
system.cpu.dcache.WriteReq_mshr_miss_rate::total     0.031171                       # mshr miss rate for WriteReq accesses
system.cpu.dcache.WriteReq_avg_mshr_miss_latency::.cpu.data 67993.888451                       # average WriteReq mshr miss latency
system.cpu.dcache.WriteReq_avg_mshr_miss_latency::total 67993.888451                       # average WriteReq mshr miss latency
system.cpu.dcache.SoftPFReq_hits::.cpu.data          476                       # number of SoftPFReq hits
system.cpu.dcache.SoftPFReq_hits::total           476                       # number of SoftPFReq hits
system.cpu.dcache.SoftPFReq_misses::.cpu.data         7942                       # number of SoftPFReq misses
system.cpu.dcache.SoftPFReq_misses::total         7942                       # number of SoftPFReq misses
system.cpu.dcache.SoftPFReq_accesses::.cpu.data         8418                       # number of SoftPFReq accesses(hits+misses)
system.cpu.dcache.SoftPFReq_accesses::total         8418                       # number of SoftPFReq accesses(hits+misses)
system.cpu.dcache.SoftPFReq_miss_rate::.cpu.data     0.943455                       # miss rate for SoftPFReq accesses
system.cpu.dcache.SoftPFReq_miss_rate::total     0.943455                       # miss rate for SoftPFReq accesses
system.cpu.dcache.SoftPFReq_mshr_misses::.cpu.data         7937                       # number of SoftPFReq MSHR misses
system.cpu.dcache.SoftPFReq_mshr_misses::total         7937                       # number of SoftPFReq MSHR misses
system.cpu.dcache.SoftPFReq_mshr_miss_latency::.cpu.data    770217999                       # number of SoftPFReq MSHR miss cycles
system.cpu.dcache.SoftPFReq_mshr_miss_latency::total    770217999                       # number of SoftPFReq MSHR miss cycles
system.cpu.dcache.SoftPFReq_mshr_miss_rate::.cpu.data     0.942861                       # mshr miss rate for SoftPFReq accesses
system.cpu.dcache.SoftPFReq_mshr_miss_rate::total     0.942861                       # mshr miss rate for SoftPFReq accesses
system.cpu.dcache.SoftPFReq_avg_mshr_miss_latency::.cpu.data 97041.451304                       # average SoftPFReq mshr miss latency
system.cpu.dcache.SoftPFReq_avg_mshr_miss_latency::total 97041.451304                       # average SoftPFReq mshr miss latency
system.cpu.dcache.LoadLockedReq_hits::.cpu.data           38                       # number of LoadLockedReq hits
system.cpu.dcache.LoadLockedReq_hits::total           38                       # number of LoadLockedReq hits
system.cpu.dcache.LoadLockedReq_accesses::.cpu.data           38                       # number of LoadLockedReq accesses(hits+misses)
system.cpu.dcache.LoadLockedReq_accesses::total           38                       # number of LoadLockedReq accesses(hits+misses)
system.cpu.dcache.StoreCondReq_hits::.cpu.data           38                       # number of StoreCondReq hits
system.cpu.dcache.StoreCondReq_hits::total           38                       # number of StoreCondReq hits
system.cpu.dcache.StoreCondReq_accesses::.cpu.data           38                       # number of StoreCondReq accesses(hits+misses)
system.cpu.dcache.StoreCondReq_accesses::total           38                       # number of StoreCondReq accesses(hits+misses)
system.cpu.dcache.tags.pwrStateResidencyTicks::UNDEFINED 168359410000                       # Cumulative time (in ticks) in various power states
system.cpu.dcache.tags.tagsinuse           507.618872                       # Cycle average of tags in use
system.cpu.dcache.tags.total_refs            52029244                       # Total number of references to valid blocks.
system.cpu.dcache.tags.sampled_refs            875081                       # Sample count of references to valid blocks.
system.cpu.dcache.tags.avg_refs             59.456489                       # Average number of references to valid blocks.
system.cpu.dcache.tags.warmup_cycle            223000                       # Cycle when the warmup percentage was hit.
system.cpu.dcache.tags.occ_blocks::.cpu.data   507.618872                       # Average occupied blocks per requestor
system.cpu.dcache.tags.occ_percent::.cpu.data     0.991443                       # Average percentage of cache occupancy
system.cpu.dcache.tags.occ_percent::total     0.991443                       # Average percentage of cache occupancy
system.cpu.dcache.tags.occ_task_id_blocks::1024          512                       # Occupied blocks per task id
system.cpu.dcache.tags.age_task_id_blocks_1024::0          115                       # Occupied blocks per task id
system.cpu.dcache.tags.age_task_id_blocks_1024::1          239                       # Occupied blocks per task id
system.cpu.dcache.tags.age_task_id_blocks_1024::2          157                       # Occupied blocks per task id
system.cpu.dcache.tags.age_task_id_blocks_1024::3            1                       # Occupied blocks per task id
system.cpu.dcache.tags.occ_task_id_percent::1024            1                       # Percentage of cache occupancy per task id
system.cpu.dcache.tags.tag_accesses         105039401                       # Number of tag accesses
system.cpu.dcache.tags.data_accesses        105039401                       # Number of data accesses
system.cpu.itb.walker.pwrStateResidencyTicks::UNDEFINED 168359410000                       # Cumulative time (in ticks) in various power states
system.cpu.itb.stage2_mmu.stage2_tlb.walker.pwrStateResidencyTicks::UNDEFINED 168359410000                       # Cumulative time (in ticks) in various power states

---------- End Simulation Statistics   ----------
